58
Coordinates from ORCA-job opt
  N   -0.74012791017109     -4.01510475345242     -3.29116215252948
  H   -0.42724492601402     -4.04394891739527     -4.24781218546432
  C   -0.18814200642800     -3.26428099256731     -2.29299999801634
  N   -1.91677686552507     -4.43156019513980     -1.50695522061051
  C   -0.93408894459491     -3.53110246838235     -1.18573681398394
  H   -0.82747763241636     -3.12568124332711     -0.19379150387700
  C   -1.77214132948046     -4.70129642475752     -2.78589452347282
  H   -2.38451330629063     -5.37437573713020     -3.36216796468033
  N   -1.43095284841898     -7.33324998157205      2.81235332404370
  H   -1.47148559602573     -7.88563156428604      3.65346711130815
  C   -0.29894100015113     -7.03023099293755      2.10969701112384
  N   -2.07622282398383     -6.10216628183191      1.13508361639585
  C   -0.71578052478764     -6.26182691830613      1.06717400656402
  H   -0.12327548590317     -5.82422425616574      0.28212493785061
  C   -2.47590674305646     -6.76630187761259      2.19692304853074
  H   -3.49408840169714     -6.86882303531249      2.53509717246634
  N   -5.75824917420156     -2.88665120184088      2.10695974945940
  H   -5.98272914292015     -2.46544232268027      2.99381053604327
  C   -6.41429897131792     -2.67017402330873      0.92781799250698
  N   -4.70018603729243     -4.07353061949046      0.60906067163228
  C   -5.73845058701742     -3.41339085558297      0.00442487024231
  H   -5.92159042078611     -3.48975765704162     -1.05389022595171
  C   -4.73857423528411     -3.72671023418406      1.87437500202889
  H   -4.05021737556323     -4.04485077054983      2.64053785356793
  N   -7.66361557002022     -9.74236164287888      1.12423596501036
  H   -7.54713976565388    -10.60223332970183      1.63528284417756
  C   -8.83217600287058     -9.04862100054123      0.98257500530078
  N   -7.19366659580901     -8.01670677532165     -0.11352600952567
  C   -8.52488977557237     -7.97489235535248      0.20576990409060
  H   -9.17628055191193     -7.19163155759768     -0.14239740140615
  C   -6.70311579185767     -9.09750412664872      0.45209613755130
  H   -5.68452668206379     -9.44219020867536      0.38044560561998
  N   -4.82755018303486    -10.14354815019841     -4.02029419766204
  H   -4.08406852020612    -10.62726530433561     -4.49595869100923
  C   -6.11095999961985    -10.59021601281322     -3.88052100303524
  N   -5.88269947603506     -8.60054617347217     -2.89373616419087
  C   -6.75427159367764     -9.61758197785772     -3.17736359780838
  H   -7.78463110569005     -9.59293882134817     -2.86272423987388
  C   -4.73075080090796     -8.94985800819580     -3.41389293870778
  H   -3.81774152192254     -8.38068339955445     -3.36472338547752
  N   -8.44863789111662     -4.87726007875517     -4.07823923706741
  H   -8.72985456411648     -4.70744846455201     -5.03055963121630
  C   -8.88976601847068     -4.19501197808816     -2.97972700674391
  N   -7.45623012047267     -5.78706907797277     -2.36952536572571
  C   -8.26711312894387     -4.77666459054000     -1.91958038419709
  H   -8.35164056676682     -4.52912127178601     -0.87484717887431
  C   -7.59196298273057     -5.82325240541276     -3.67667707750142
  H   -7.09620971992311     -6.50983709656902     -4.34324335421202
  Cu  -6.08836997817307     -6.92316896490305     -1.40068461910202
  Cu  -3.29854063903926     -5.43835629271674     -0.36114533015422
  O   -4.25546008884624     -7.12938216540308     -0.78719004897855
  O   -4.32505184681530     -6.18082082512544     -1.84643678021447
  H   0.65574762873973     -2.61511387177784     -2.44659442772965
  H   0.67935415207982     -7.36845717211030      2.40221077515232
  H   -7.25824521511145     -2.00850931758690      0.84261290071623
  H   -9.75795310945342     -9.36565207489975      1.42930654956130
  H   -6.44990482046226    -11.52798607129353     -4.28456846866043
  H   -9.59790184906339     -3.38736603341010     -3.03924366240974
