96
Coordinates from ORCA-job opt
  H   2.64581305937993      0.76364037155686     -7.56028944235860
  C   2.05810001746240      1.56700002382228     -7.11240002345381
  H   1.41768486396705      1.97259048971398     -7.89853419737428
  H   2.75234192551438      2.35519331172406     -6.82023824669736
  C   1.25488198195206      1.07957117925964     -5.93758481328264
  C   1.34159237666934      1.68252971840079     -4.69056656105293
  H   2.01371054139079      2.52176064538697     -4.54883440397000
  C   0.58589060571819      1.24289705973315     -3.61048854164711
  H   0.68020348204707      1.73750442429489     -2.65067089798987
  C   -0.28844553119707      0.16979996974513     -3.75874887252311
  O   -1.06627157812070     -0.29007854250679     -2.76802424131289
  H   -0.85986135886329      0.11971607344343     -1.90323016436391
  C   -0.37646507853837     -0.45866934551673     -5.00311786062746
  H   -1.03195702666635     -1.31351031409489     -5.12646334731454
  C   0.38306600799333     -0.00258657513400     -6.06333025518882
  H   0.29620355007443     -0.51088151201467     -7.01703774704291
  H   3.92765277433355     -3.64684564878179     -0.91984470594034
  C   3.16240006755166     -3.85219995915990     -1.66560001036011
  H   3.51819092764135     -4.60440065962918     -2.36676123163802
  H   2.98572224321591     -2.93672659908105     -2.23446259894549
  C   1.84507877619938     -4.28811074122908     -1.00571995970419
  O   1.63743816452083     -3.87572673924530      0.16536714134455
  O   1.05478973138323     -4.98995513941839     -1.67984428595559
  H   3.02615460584545      0.90932156659894      2.55830671460507
  C   1.95340009168915      0.91450004024359      2.75980000221145
  H   1.66492064063309      1.94087722811812      2.97744239346257
  H   1.78626711086270      0.32511153618222      3.66355633496524
  C   1.16338570535690      0.41137833092067      1.60061434170193
  N   1.26032446242023     -0.84777169230614      1.05680480191646
  H   1.84862582406374     -1.62103755735859      1.33078866723263
  C   0.41429924957210     -0.92126819200445      0.01448132396953
  H   0.29641736171581     -1.81404010092501     -0.57731195782904
  N   -0.23022216448172      0.20621044253056     -0.15162468716246
  C   0.22820859822062      1.04111901605944      0.82859224518074
  H   -0.13006324613058      2.05412122592176      0.92616781538026
  H   -6.33359741212287    -10.36757606431262     -1.31676220626464
  C   -6.12610010355808     -9.32910010095020     -1.05109999922296
  H   -6.69481203769599     -9.09997124132207     -0.14709033355535
  H   -6.52644495966551     -8.70202570689874     -1.85264151293721
  S   -4.31750779981813     -9.09408627430010     -0.77478070834111
  H   -5.50327248036787     -6.52560259852082     -2.15841907073682
  H   -2.15428592362601      0.32699894356052      5.07647604276163
  C   -2.72830011348170     -0.55580001430411      4.79889997398239
  H   -3.77147540683279     -0.35906110483286      5.05289493180238
  H   -2.37897184259946     -1.39144671507111      5.40498130348627
  C   -2.56658276700200     -0.84737518524399      3.31927744742758
  H   -1.51354172977758     -1.01053591965813      3.07934443301155
  H   -2.90115342583945      0.01858731401525      2.73551916129984
  N   -3.31831300312073     -2.03626987849143      2.98687972087976
  H   -4.16780405784444     -2.15698660874251      3.51259861310811
  C   -3.35502420981606     -2.57724162084925      1.74806606960593
  N   -4.09451104885499     -3.64660612696162      1.54727978405513
  H   -4.49801138228475     -4.12838855175476      2.32964087741529
  H   -4.45046737042310     -3.89371471478140      0.59121333227314
  N   -2.60592075186443     -2.08077579061433      0.78721533352779
  H   -2.27779410873218     -1.13066859980572      0.80482508573176
  H   -2.48513930067155     -2.59096864154919     -0.09168047911722
  H   -5.42838672602200     -0.06037251903167      2.91362875414144
  C   -6.36409996128117     -0.51550000288086      3.23410004876784
  H   -6.78751468912857      0.10025488030036      4.02827295574960
  H   -6.15225925713883     -1.49402540595487      3.67179125276752
  C   -7.32996309774760     -0.64616354733345      2.06546326463654
  H   -7.60991140990255      0.35237783358196      1.71660663318827
  H   -8.25063170290809     -1.13809606538379      2.37861839154150
  C   -6.70646342740778     -1.38633512935366      0.88905215207042
  O   -5.57810041278278     -1.12229885840926      0.52515391358605
  O   -7.50534389308288     -2.26468224900959      0.37326553914256
  H   -7.13443003199640     -2.84903543391656     -0.42145038299821
  Mn  -1.10607849198652     -5.58144852192589     -1.49136134781026
  O   -2.40800884596378     -3.74226101569560     -4.99797692357765
  C   -2.16751495495504     -4.14013260049984     -3.87188022811429
  O   -1.57035646173277     -5.18691213559830     -3.49536978259045
  C   -2.62895009095553     -3.24177216565841     -2.70091977859830
  C   -3.69227601595327     -2.23194297772082     -2.93490267137460
  O   -2.07388248150871     -3.39842756757606     -1.62330702496132
  C   -5.87770430238342     -5.60389039975550     -2.61744924730534
  H   -5.10508917348794     -5.32194904389503     -3.34205789716469
  C   -7.19370282257556     -5.85313624609037     -3.33107803856363
  C   -5.92069887244301     -4.51966032770952     -1.55383618029630
  O   -4.89972537506426     -4.42164139838888     -0.81927141481476
  O   -6.92398439213173     -3.78656760188606     -1.47790499736359
  H   -4.07971860571754     -1.82169666674738     -2.00530199942032
  H   -4.50637835506742     -2.67568946370671     -3.50662461283611
  H   -3.28635968140906     -1.42736788154861     -3.54805221420223
  H   -7.55379833939517     -4.95997414760446     -3.83992746285944
  H   -7.96856442475913     -6.16947772852025     -2.63339508930269
  H   -7.07511647810059     -6.64263962148429     -4.07383137894728
  O   -1.29724947989354     -7.78168378023062     -2.22879473562357
  H   -2.14120267287532     -8.20145355107313     -1.96273041312530
  H   -1.36862183293739     -7.68902892039385     -3.18480670685113
  O   -0.71555493803598     -4.87729499008066      0.58077917710023
  H   -0.88339271928955     -5.46443698526079      1.31920231851472
  H   0.20895664980163     -4.50040989753278      0.62471933894978
  O   -2.98941672714789     -6.21413004464599     -0.54485950754537
  H   -3.72558530628930     -5.57284208244806     -0.67581458490289
  H   -3.45245294067624     -7.10054602587240     -0.56651515432562
