82
Coordinates from ORCA-job opt
  C   3.68383801209083      5.15280404696945     -0.42929899178747
  C   2.60942784270474      4.20061878591110     -0.03544494172937
  N   1.27769501553267      4.37992299269926     -0.32877498180938
  C   2.65299643818216      3.00878449055404      0.62430810699478
  C   0.58870442024271      3.32172423821888      0.13991072123724
  N   1.39859256316494      2.47341561616949      0.71574696718112
  C   -2.68324598996853      1.23049800249657      3.83024396494146
  C   -2.01091585386507      0.83534819496823      2.54951508998442
  O   -0.85807974919048      1.28732815077291      2.39748172054746
  O   -2.63548652133180      0.08903457087617      1.75567241139952
  C   3.31740333454289      1.20218034142614     -1.97454873337094
  O   2.23389102648474      0.67491168897606     -2.07142568588959
  O   4.22535421624231      0.89812357232538     -1.07452118960053
  C   -1.69673303839428      3.14107396124411     -2.56858093463025
  C   -2.22846121202437      1.92112670201448     -1.86183583690135
  O   -2.26562157953302      0.83206760359474     -2.47038988480528
  O   -2.52828777169516      2.04003807945743     -0.64616800794401
  C   4.17051497549148     -0.09707899193147      3.43689897465074
  C   3.17831756619510     -0.11706496996918      2.28903555987934
  O   1.99164242056957      0.15428148693383      2.62830038235834
  O   3.55053673161886     -0.36405556444252      1.13376254528445
  C   -8.10143199143312     -0.88998598341318     -0.29289800776372
  C   -6.64513439861537     -0.76848946339409     -0.61696676380652
  N   -6.17279219028514     -0.83764010267895     -1.90646957263988
  C   -5.52411404575514     -0.56360782290224      0.13870063929199
  C   -4.83875822923030     -0.67063484817361     -1.88861568627548
  N   -4.41426544271090     -0.50491979762382     -0.66478882694040
  Zn  -2.33207620260582      0.00822161001572     -0.22780127936658
  Zn  0.59993539756852      0.51642199529318      1.30866044784810
  C   0.29211123724569     -2.65848946768554      0.65588469445696
  C   0.13385231426722     -4.14849466055747      0.97142231938574
  N   -0.07520899219536     -1.78276693719473      1.75711806839447
  O   -1.78476445707238     -2.15544759384627     -0.45850032921770
  O   -0.29867450790761      0.15406146455808     -0.35499269265000
  H   -8.68847322787322     -0.10171073530613     -0.76696718394451
  H   -8.50952853404506     -1.85190687888457     -0.60758285169391
  H   -5.44547667454991     -0.44820802113350      1.20671612222285
  H   -6.73146962155679     -0.97423572838384     -2.73053838013946
  H   -4.22534211765601     -0.64884670396005     -2.77310098526784
  H   4.65330507771602      4.74315182955573     -0.15324540463221
  H   3.69709244868523      5.33425316711724     -1.50584230651509
  H   3.58352528762633      6.12001273590838      0.06729270008339
  H   3.52012892964644      2.50902668486718      1.02041002566306
  H   -0.48094357529703      3.20423240045510      0.04575351576783
  H   -2.06611017679749      0.93830597432911      4.67998562309871
  H   -3.67183700423243      0.79029703121491      3.93806513586278
  H   -0.60483405821762      3.08937949045093     -2.56600660298633
  H   -2.00189983210701      4.06341101670304     -2.07727632858150
  H   3.77199856831212     -0.62263110516899      4.30334726954106
  H   5.12779205687816     -0.53019606793820      3.15579690294177
  H   0.41400793719751     -4.77236211144589      0.12225465841070
  H   -0.90095524284404     -4.38057580839180      1.22551182542714
  H   0.42962248747066     -2.05502172700851      2.59170042067559
  H   -1.06485684754351     -1.87944071041268      1.95862973746296
  H   -2.77704354931243      2.31616773260691      3.87318209940646
  H   4.33694462555640      0.93648589408515      3.74623585825295
  H   -8.24967000425737     -0.80745120459498      0.78149678789447
  H   -2.00654453169224      3.16950871101446     -3.61250113788963
  H   3.88222349692921      0.31677326477443     -0.34338716125053
  H   0.13355845615775      0.44130982880492     -1.16464159258469
  H   1.34071132150460     -2.45371784071748      0.41920595814234
  C   -0.56962715152884     -2.34652514075656     -0.55823305829610
  H   0.76625271322211     -4.42714383060313      1.81559564503208
  C   3.79700703601706      2.28610496807342     -2.91055500583125
  H   2.97521537581075      2.64994290834402     -3.52106271378214
  H   4.57213534448102      1.89325089302913     -3.57108096241115
  H   4.23946893695928      3.11123038090566     -2.35576322092595
  N   0.05047105077711     -2.43828956063724     -1.73561292982724
  H   1.05624971548993     -2.47105314963642     -1.74026623779001
  C   -0.62327759610502     -2.15651514609002     -2.97420771602134
  H   -1.21672527077821     -1.24396776162761     -2.86995119040043
  C   0.40153392017826     -1.91830089474840     -4.08092240232630
  C   -1.55195583107361     -3.29628427973960     -3.36899749203750
  H   1.02293097584036     -2.80014585963563     -4.24702234840846
  H   -0.09093341154470     -1.67272830780266     -5.02074806709919
  H   1.04335136001099     -1.07770922763161     -3.81777385422605
  O   -1.47145541080183     -4.39327170961047     -2.88732604783099
  C   -2.55565960786349     -2.96408152661798     -4.45114585238727
  H   -2.21923946503261     -3.37661733928525     -5.40434118414699
  H   -3.51362470008417     -3.42779761369340     -4.22029671688938
  H   -2.69318382060762     -1.89088747349197     -4.58090911355998
  H   0.87666073965227      5.16751606445977     -0.80743114163151
