81
Coordinates from ORCA-job opt-constrained
  C   42.16469500156124     36.57925999595339     28.75345199272006
  H   41.76988448740089     35.71238128475422     28.23217126421953
  H   43.25466834988298     36.52140301195276     28.71261894284521
  N   41.65675512627336     36.57266110174486     30.10575178520203
  H   41.23183491118077     35.72707865478231     30.44133367243838
  C   41.79711654093001     37.58456929202220     30.97743672460667
  N   42.53149918658686     38.63577505647489     30.67360598265834
  H   42.56791789501806     39.46230967862542     31.31522337822668
  H   43.11592624407839     38.64519086626375     29.85687793475196
  N   41.18746143026902     37.51445151481496     32.15538980561228
  H   41.15057281442482     38.34736129118093     32.78515582372182
  H   40.46063123557366     36.83347241008307     32.28489554519717
  N   36.48134569718620     42.70113262355093     34.96087532277097
  H   35.57975024917874     42.71571990214888     34.51509063354116
  C   36.91486301886163     41.78062701711636     35.87493299793604
  C   37.47531204597607     43.57446194218612     34.73745543287192
  H   37.41604143252591     44.40272415876700     34.04987052209704
  N   38.51929445640977     43.26220020274677     35.46839555815453
  C   38.18853797530576     42.13787346738066     36.17612706231419
  H   38.87697879329927     41.64665800714220     36.84094192829095
  N   40.47576199827832     43.29520585610265     39.53396630614881
  H   40.10381362307250     43.27353404678765     40.46808864443438
  C   41.70842899589018     42.85808699201340     39.14669100190648
  C   39.84730698245642     43.77257489028890     38.45161529245692
  H   38.85425500884723     44.18172968299256     38.48715207063823
  N   40.61007900878894     43.66053080827569     37.38833717642501
  C   41.78283549687214     43.09057099508665     37.81129646547179
  H   42.62060971256549     42.92278013901710     37.15236320006170
  C   45.46915400873357     44.30321200286564     37.73271300126139
  H   45.24802084213768     43.50723969485761     38.44269481052886
  H   44.94601810411741     45.20634333320468     38.03910470066651
  S   44.84657157383762     43.93686686303476     36.06512106238083
  N   38.91885448309031     48.04117730334438     36.33736622401010
  H   39.02214832766013     49.03659568874285     36.23650250108486
  C   37.89389899729770     47.39590199603944     36.96927599705270
  C   39.75379911115901     47.11775374898681     35.83905251989908
  H   40.62783396432329     47.35055349329433     35.25406630855343
  N   39.32532259731980     45.91348258567565     36.13283734949253
  C   38.15993427510784     46.07325443841309     36.83114967327690
  H   37.55873562208805     45.24432033103248     37.16304350806367
  N   44.02233842274935     44.29305829890139     30.65684835487491
  H   43.27851763675002     44.97504528629127     30.73354068813314
  C   45.32413698055355     44.44319599280502     31.04454401220088
  C   43.86840097777964     43.00534875926579     30.27958878240049
  H   42.92672913488715     42.61780134784562     29.92615662722989
  N   44.97652022883607     42.32468650973143     30.39547779788305
  C   45.89567218318896     43.21603937828862     30.87052250011537
  H   46.91563827627138     42.92777407894168     31.06753746774235
  C   47.13710199803258     40.54180200645788     35.68339600391226
  C   46.61244740442179     41.72020001773788     36.21467428705149
  H   47.00711977597563     42.09995471317251     37.14856502931760
  C   45.60110935512183     42.40998723013956     35.55710311054228
  C   45.11962788786334     41.89248006377974     34.34509048842319
  O   44.12168805068111     42.56126693817487     33.73795375934289
  H   43.80400956721441     42.06389871366131     32.96316347175494
  C   46.66408412404114     40.05645417604951     34.47883363392491
  H   47.07878972573994     39.15313982418838     34.05262445151700
  C   45.65656437358738     40.73136314609108     33.80988041557590
  H   45.28807927286734     40.37018417205629     32.85723242140656
  N   41.19660961066445     42.58593496898935     34.74559671978844
  H   41.07253296682640     41.77437742959147     35.34983363411705
  C   40.77523605337695     42.16748317966963     33.38768411174359
  H   39.69106203924510     42.02958850852080     33.41265430543145
  C   41.15159671028042     43.20226941944681     32.35320647623709
  H   42.19135510159942     43.51575700553565     32.44295235131893
  H   41.01394140967298     42.79225433371330     31.35201569828889
  S   40.20774961909881     44.75424693105575     32.37568979424643
  C   41.37940743812327     40.78479457440319     33.05052696125502
  O   42.38032497195740     40.76392775754027     32.29387050751264
  O   40.81928627978638     39.80370002817805     33.56739650353463
  H   42.20998226733344     42.72889794754138     34.70615885533292
  Fe  40.21752764772280     44.23736293052001     35.49619487203114
  O   40.43776783621458     45.18373862223723     33.86910054193130
  O   41.01997829019606     45.61834041159844     31.47344447918518
  H   41.83314909339492     37.46578351809848     28.21239409659067
  H   36.30385415161037     40.96162056871947     36.21041463619713
  H   42.41701677362187     42.43170532011565     39.83450548023889
  H   46.53870397134929     44.50460845139844     37.72978926622708
  H   37.07970919830963     47.91733836869664     37.44063955481987
  H   45.71585923563357     45.37615968047147     31.40968803004951
  H   47.92465431917506     40.02545385521346     36.21466384495654
