116
Coordinates from ORCA-job tsopt
  C   6.40766899513076      1.29357999693150      4.82460398716532
  C   6.02583139327795     -0.14580622954815      5.05755442693061
  O   6.45434761847650     -0.76132457100964      6.01552849516191
  N   5.19407575729438     -0.66430894778540      4.13462295185883
  C   4.74740300229911     -2.02932899902906      4.18799100219632
  C   3.29000901709873     -2.21508393032796      3.81962030989506
  C   3.08915888891324     -2.13653056907954      2.32120156978054
  O   3.80635939654455     -1.37417740716873      1.67295584919476
  O   2.19673613989167     -2.92637601320891      1.87692275598934
  C   -5.31554800304490     -2.33332200079111     -0.71386999995181
  C   -4.09056325373516     -1.67894501971887     -0.07147266871683
  S   -2.73293906555992     -1.60003556688450     -1.29627624996921
  C   8.37735200155081     -0.56716899911014     -2.98768999871727
  C   7.34882036833908     -1.07729752245273     -2.03188372589743
  C   7.25286942952114     -0.80492180506656     -0.69581718262987
  C   6.24094280521324     -1.93609368259038     -2.33646572005145
  N   6.17452639937653     -1.44755412309324     -0.15330581594548
  C   5.52768432505245     -2.13490859504183     -1.13672405038743
  C   5.75051562418279     -2.51789411761822     -3.51178610637785
  C   4.35343980838767     -2.88178518153150     -1.07523350345259
  C   4.58274524312836     -3.25153653793839     -3.45770744366278
  C   3.88926000280367     -3.42940001072095     -2.24684500352470
  C   2.37542296395698      5.51818788236322     -3.09125104123519
  C   2.75330304897709      4.79273052423257     -1.80677190375535
  N   1.69470923996431      3.94797033814339     -1.28976458104680
  C   0.61745668882064      4.33803860403841     -0.62636849903067
  N   0.59311768983070      5.55039264631987     -0.03480425091721
  N   -0.44852973806443      3.57228551745330     -0.58585672213888
  C   -2.68473699948703      2.75209799894656      4.39390500070949
  C   -3.70771639727138      2.40496197357760      3.33059223930602
  O   -4.52670652170314      3.53704194393990      3.12326009394144
  C   -3.09831614065055      1.92287546784040      2.03737344215668
  S   -1.75137431647845      0.81974114451180      2.13020170219732
  C   -3.60283455854534      2.27140033737835      0.84474279025069
  S   -2.97180481733761      1.56731591278001     -0.62815911388077
  C   -4.76288919437616      3.21770734828960      0.73483664846636
  C   -5.45103747272053      3.34106121382196      2.08610897619022
  C   1.42821103802757      1.94895313301748     -4.28348295133305
  C   2.12424237995818      1.04994903696578     -3.28176567842448
  O   3.35892723432456      1.66057307356424     -2.95455390195829
  C   1.31519873388877      0.78802671659167     -2.02807186349020
  S   -0.41804817689298      0.53368156681702     -2.17103343809598
  C   1.90316178991276      0.73096307462501     -0.81789345668997
  S   0.97753188039886      0.41142770808423      0.62393846602091
  C   3.38185963336944      0.93569558538279     -0.65197956670595
  C   4.06830158834008      0.89136364492085     -2.00356423739078
  W   -1.27323104414790      0.00903694048758     -0.02570829829515
  O   -1.06109624131881     -1.80683113895487      0.98584698601292
  C   0.64352607351910     -2.97291245581709     -0.21374557481066
  C   -0.44677604170991     -2.85035713010816      0.65048249295711
  C   -5.49184515825308     -3.82901609863340     -0.36218132377412
  O   -6.47576998133081     -4.24087218947560      0.22090082650299
  N   -4.50330186943484     -4.65297199765708     -0.77588927539915
  N   -6.54544904927521     -1.63386530296512     -0.41346136464413
  C   -7.59681515885709     -1.65746669907030     -1.27517855876446
  O   -7.52376531170493     -2.08560959259712     -2.40728926289356
  C   -4.59426100110650     -6.09264299888862     -0.60709900220626
  C   -8.90551599832570     -1.08781599761649     -0.74539399956107
  H   6.14279352571001      1.88290212504901      5.70179461413958
  H   2.67202063631142     -1.45228573249440      4.30353767157531
  H   2.93658481332749     -3.17899895576173      4.18724827596654
  H   4.91312577642876     -2.37450919384194      5.20780117108374
  H   4.91055418287530     -0.13056663587093      3.33003382269677
  H   7.92156330580992      0.00653521010527     -3.79797251283609
  H   8.94209759532128     -1.38042625642247     -3.44915796244323
  H   7.89369728273914     -0.19029315856749     -0.08231547590161
  H   5.79063699853416     -1.32591304027534      0.77086192519203
  H   6.26942451261021     -2.38213122525957     -4.45331656262710
  H   4.18679562735669     -3.69370265543693     -4.36303873732678
  H   3.80730743876070     -3.00395142349069     -0.15526233075682
  H   2.96675597171925     -3.99456691257240     -2.23882634864865
  H   2.15340520710539      4.80621268099407     -3.88313138072994
  H   1.50594604311193      6.16048011775185     -2.94957129186494
  H   3.59477242313230      4.12907392255806     -1.99040769016373
  H   3.08548216080103      5.50385147570472     -1.04586978553611
  H   1.72684202246710      2.95799068592927     -1.53220294287128
  H   -0.22934981132920      5.81213908737537      0.47949046204478
  H   1.45477119043830      5.95327628796395      0.28680237673111
  H   -1.13128681175423      3.61705357526058      0.15635973706548
  H   -0.50411285642071      2.70968470968474     -1.13024508323587
  H   -3.77564569186836     -2.19531515514726      0.83810189762293
  H   -4.36213576644507     -0.66040295163109      0.20734279940680
  H   -1.99960864072104      3.52444890438508      4.04194959377114
  H   -2.09391979754349      1.87669017519439      4.65285489958997
  H   -4.33027946473604      1.58132566911285      3.72436590164847
  H   -5.47750433272541      2.85472866976086     -0.00862317979350
  H   -6.05021551974645      2.43566211290325      2.26800532173623
  H   1.08764547052727      2.88215971263129     -3.83368417257287
  H   0.54693032431912      1.45462699259283     -4.68766543297312
  H   2.32484394417302      0.08272979071520     -3.77190546608688
  H   3.77621003846909      0.15216314970619     -0.00699993590036
  H   4.14435177441865     -0.14722556403847     -2.34567567369969
  H   0.84281316112146     -2.18473972385544     -0.93320468862865
  H   -3.18274605961580      3.11374115575468      5.29465909591919
  H   -4.42788151370617      4.19970103201852      0.38116378471978
  H   -6.13522383641684      4.19305265468298      2.10350244654069
  H   2.10083516859419      2.18272469339164     -5.10978572562804
  H   3.20449837603671      6.14303846751075     -3.42415114239993
  H   5.08383151571327      1.28951662953964     -1.95271010872385
  H   3.57476269546595      1.88596452237998     -0.13685916494294
  H   7.48873879659121      1.36605769313215      4.70648321110827
  H   5.93489262096110      1.74540602736983      3.95279559128571
  H   9.09449409184633      0.08483403388600     -2.48838615122796
  H   5.37283125766317     -2.66301682650180      3.54990154289836
  H   -5.19984861609510     -2.26646031135152     -1.79819391906058
  H   1.60230992501933     -2.83465335784390      0.83003378472810
  H   0.83991264350657     -3.98384174293304     -0.56029124148843
  H   -9.58504741188974     -1.91265824941690     -0.52930596581565
  H   -8.79268536055101     -0.49324325373665      0.16126970961279
  H   -9.36331236601957     -0.47142357356541     -1.51595390705536
  H   -0.72347200514010     -3.74623490936165      1.21870229415119
  H   -3.67749997847950     -4.24311265373849     -1.18952815197877
  H   -6.74253374215023     -1.45954054188702      0.55776579427668
  H   -5.50689307888615     -6.48094522664280     -1.05887942610683
  H   -3.73923719755299     -6.55155570805978     -1.09816349439340
  H   -4.58724053454044     -6.38295838132506      0.44472888079171
