81
Coordinates from ORCA-job opt-constrained
  C   42.18513899949073     36.55781499671925     28.77237499515231
  H   42.04542006251673     35.57005773729774     28.34318267462265
  H   43.25759168769067     36.70164035910373     28.90508700581032
  N   41.49323098360870     36.61469253329984     30.03495792023956
  H   40.77592353144458     35.93223633683147     30.20267485618400
  C   41.57133685206389     37.64537204032062     30.88951567922951
  N   42.33438341736824     38.69023844607731     30.60832553938562
  H   42.41076637639944     39.48189202281115     31.27618540967177
  H   42.68477600627617     38.83456542261182     29.67877581465665
  N   40.91627152020521     37.60744068301414     32.03607348146274
  H   40.71478448970997     38.52394009794079     32.52313588316005
  H   40.39191777726924     36.78912538326779     32.28722642199148
  N   36.63301107139358     42.52804619308915     34.76880105013964
  H   35.87579168811924     42.40287022032449     34.11867250305516
  C   36.88852799638317     41.75273000801445     35.86584500907965
  C   37.58474993819131     43.46776288475223     34.68683065365925
  H   37.66996443330454     44.19503993756635     33.89362464904039
  N   38.43100956409987     43.33972697996844     35.68118152854349
  C   38.01022745161564     42.27492729124724     36.42685293902751
  H   38.53278815877243     41.95163934232834     37.31182319253742
  N   41.60246320647211     44.03489053901733     39.67376273173836
  H   41.71846134802548     44.42985383815332     40.59166969531758
  C   41.82424696111875     42.73069503789229     39.32361891263982
  C   41.20305324306464     44.69837769116833     38.57958612319789
  H   40.95664753291080     45.74733097387421     38.57250637783225
  N   41.15561104743627     43.89176008886114     37.54599050804115
  C   41.55105434704962     42.66188744442677     37.99656193245558
  H   41.64208529511426     41.80722586292041     37.35139814157318
  C   45.41404302326485     44.19926801918135     37.69835702357578
  H   45.31371254990638     43.44157939801541     38.47397628088449
  H   44.85961200693012     45.08703291440360     37.99494784703893
  S   44.65580624401786     43.67750537753874     36.13294365794135
  N   38.46197577516313     48.11091617087727     36.09819035737816
  H   38.25788333679422     49.03136381791087     35.74689976081236
  C   37.82646707909385     47.48302893079941     37.13472296764147
  C   39.39786725272320     47.28068945187855     35.61666728035139
  H   40.03001578148646     47.50827368554811     34.77266395000333
  N   39.40227324745032     46.15910001726608     36.29504827135840
  C   38.42406964335115     46.26943402394719     37.24433963901319
  H   38.19262465734667     45.46801186746256     37.92590989953792
  N   44.31213105125691     44.96956813984769     31.97994406845450
  H   44.21113103002318     44.62092656595872     32.91875855283410
  C   45.27610891403281     44.59573701167002     31.08815507305367
  C   43.50157323306401     45.85216848094448     31.35132111667628
  H   42.63323334596594     46.27511088761092     31.83378379020826
  N   43.88857201420341     46.06995271618689     30.12503051949323
  C   44.99591309179087     45.29483532130505     29.94953925477441
  H   45.53447031297168     45.28147823140463     29.01521585679464
  C   47.16898202887776     40.45250597971588     35.67281100686535
  C   46.59866357093583     41.60718800389348     36.21179549201177
  H   47.00762814901087     42.02127465933984     37.12468406059218
  C   45.52030132075173     42.22568049415879     35.59181265272606
  C   45.02346793639649     41.67080133341936     34.40016304116764
  O   44.00241481508840     42.31555880252774     33.80587795757425
  H   43.52911009855431     41.76669571941783     33.12846212648795
  C   46.65594613363448     39.90745814377708     34.51125125740798
  H   47.08996029482630     39.01092897824073     34.08991121083224
  C   45.58408842810883     40.51642826932974     33.87573902461958
  H   45.17943975316870     40.09794355519536     32.96213345488562
  N   41.15988840349133     42.40203809713676     34.79597990147860
  H   40.89211594302792     41.56135799322615     35.29866157165083
  C   40.68087929122698     42.27061855438668     33.40759479082707
  H   39.59319350293568     42.20700429119285     33.45621130186105
  C   41.05258336937602     43.49268524000780     32.58631224380946
  H   42.12121373813867     43.52748529078917     32.38488729781179
  H   40.56513821412446     43.42165363452799     31.61322218952169
  S   40.52507185153473     45.04424876978332     33.39324246681002
  C   41.16114062076858     40.92930163208811     32.84050233795464
  O   42.31882700862574     40.84857429557013     32.34444958919531
  O   40.36163976261541     39.98460080245657     32.96983331692677
  H   42.17987090272254     42.43164570768688     34.79632773061712
  Fe  40.34256891256383     44.32285931648455     35.60011250375714
  O   42.67571483235367     46.27634515380280     35.95641754925951
  O   43.23775338312784     46.70495545844152     35.00130961833148
  H   41.81088603780658     37.28872253730873     28.05145372256352
  H   36.26552983737960     40.92309211565639     36.14940623896115
  H   42.16137501956300     41.98847039985645     40.02533021623544
  H   46.46145133415059     44.46804291659694     37.57485052045377
  H   37.02539173943263     47.94152991714098     37.68732529961324
  H   46.05775142610922     43.90015860004156     31.33996898430726
  H   48.01036622950032     39.99311800397506     36.17272650397764
