82
Coordinates from ORCA-job tsopt
  C   5.29676997202802     -0.24225998682190      3.40201698805316
  C   4.12468586324951     -0.76745775454741      2.65485468414904
  N   2.90306200951589     -1.03390337623254      3.22474304493673
  C   3.95469993093669     -1.04093308222354      1.33407215842074
  C   2.05715078023590     -1.42887295009340      2.25831165364229
  N   2.67040136302192     -1.45018448101087      1.10437831685926
  C   -0.97232400078815     -4.90850599611132     -0.20249899581300
  C   -0.82010583679645     -3.40942514374801     -0.34165972876914
  O   0.32261606425565     -2.93745069221430     -0.20411710458812
  O   -1.86686086381366     -2.74113270838887     -0.55011936994582
  C   2.74467040047714      2.49416626888061      0.88358193866399
  O   2.13725770580519      1.45774939385118      1.31951879504993
  O   2.35922138118589      3.17393723872342     -0.07411143961406
  C   -0.75589699294369      0.71996800191565      3.51796901413049
  C   -1.44300990691429      0.38010923632321      2.22745365077739
  O   -1.94261102433820      1.28610635784636      1.53987219434433
  O   -1.43114177954704     -0.83869805863868      1.88128107368994
  C   5.02408701627094     -2.29529800846797     -2.87754101146115
  C   3.81853899682060     -1.84894897824144     -2.08628482737250
  O   2.95592520910082     -2.72749905129842     -1.80082977484597
  O   3.71227537918516     -0.66253520854215     -1.72896472596107
  C   -7.49213400155159     -2.10770600029489      0.50537400271600
  C   -6.18708114703873     -1.39996468729189      0.42510471767914
  N   -6.00517162403830     -0.11337926372719      0.87289675917051
  C   -4.95925525182589     -1.78205772097194     -0.02623524484168
  C   -4.71902748714477      0.22889404175899      0.69362866119217
  N   -4.06337618639092     -0.76124265418831      0.14600564549274
  Zn  -1.97858531044356     -0.83904712832528     -0.01383271720321
  Zn  1.67212410746715     -1.53954582291019     -0.74766260840350
  C   0.76739571994338      0.77610242103651     -2.44947420626308
  C   0.17663272916663      1.43044925517478     -3.69156110640453
  N   0.89770915828569     -0.67508828498326     -2.63785675465466
  O   -1.27125525443113      0.34449143131029     -1.34135578288911
  O   0.64221555890422      0.25514733941531     -0.12849919280309
  H   -7.83366289328707     -2.21632509358412      1.53625321740047
  H   -8.27464775910037     -1.59252510918447     -0.05450035342839
  H   -4.66006752671333     -2.72612064050416     -0.44972929290255
  H   -6.71022676196731      0.47178393357157      1.28645579177989
  H   -4.29049587442923      1.17046284207455      0.99470565277872
  H   6.14101872275230     -0.13096772700472      2.72468198745834
  H   5.09554461840153      0.73848005997609      3.83752641598173
  H   5.61142290737707     -0.90759387676163      4.20858684873395
  H   4.66532447075117     -0.92959455869592      0.53381094986118
  H   1.01676488548865     -1.66378124663723      2.42219358479562
  H   -1.91054132849469     -5.26273489172495     -0.62271702161790
  H   -0.95812963488666     -5.16515267550243      0.85852904567612
  H   0.27560180933374      0.99992734168055      3.28862929600775
  H   -0.73738247467664     -0.12322075290609      4.20651937069831
  H   5.57196231064274     -1.45088138075754     -3.28924831232105
  H   5.69859222499487     -2.85335796589752     -2.22486389497522
  H   0.29376767470242      2.51297539527648     -3.69936641102510
  H   -0.88133077284615      1.19151929405660     -3.80490235168341
  H   1.54524953018845     -0.87283264013291     -3.39089185301583
  H   -0.00646071417588     -1.05412682500459     -2.90425509452640
  H   -0.13682826961775     -5.42615724759279     -0.66949933301776
  H   4.73663791315935     -2.97299161063510     -3.68055436498550
  H   -7.39671540531340     -3.10718514619751      0.08687592157985
  H   -1.21995421108215      1.57728075360717      4.00194439999015
  H   0.78282988291446      2.70594271985333     -0.43915943894279
  H   1.36520799616995      0.90262313478878      0.55551179474269
  H   1.77036526869899      1.16928361302781     -2.26482627546336
  C   -0.07341892232894      0.85916015230167     -1.14494306810063
  H   0.69808802282459      1.07157183818066     -4.58108996495904
  C   4.02561100088122      2.85392499218004      1.61730600290457
  H   3.87881787440102      2.79958415931070      2.69542226273560
  H   4.37298522051860      3.84678656226726      1.34422037516652
  H   4.79563688268964      2.12633384490046      1.35606488792835
  N   -0.19502949794033      2.34732900045045     -0.61652778558095
  H   -0.65024923149442      2.23152826498533      0.30348199813296
  C   -0.93129290757524      3.39790858431513     -1.34100351729681
  H   -0.43510293949346      3.56906692056535     -2.29483491024905
  C   -2.40362927763518      3.07379860513663     -1.57724486618929
  C   -0.85556969406767      4.69305453964081     -0.52738014291961
  H   -2.89355667102456      2.83305829874771     -0.63548623360881
  H   -2.90627659553227      3.93625056887828     -2.01678200281567
  H   -2.52201464635603      2.22753556726191     -2.24551849265355
  O   -0.79425716740055      4.68023307897618      0.67171071673345
  C   -0.87583880342808      5.96051000173302     -1.33826140341975
  H   -1.53298083562869      5.88774277862792     -2.20522566193265
  H   -1.16680611864591      6.81195779420931     -0.72794737407957
  H   0.13303206794955      6.14001338887691     -1.71858269430239
  H   2.65913814900648     -0.90447007779979      4.19066744834998
