58
Coordinates from ORCA-job tsopt
  N   0.05520404575318     -4.49566473691467     -2.58423943116766
  H   0.74612166844200     -4.97571661807710     -3.13654717729029
  C   -0.06552798776757     -3.14301099746170     -2.45622000572357
  N   -1.63090036370385     -4.15492337165726     -1.24599223433555
  C   -1.12070169261412     -2.94363713984678     -1.62548407724468
  H   -1.53306340927671     -2.00913089538765     -1.28512891479176
  C   -0.90058016662473     -5.07027721960361     -1.84025064390397
  H   -1.01920304871816     -6.13723465821491     -1.74875949595392
  N   -1.41798426789695     -7.64379198668241      2.52914890422910
  H   -1.49901299779965     -8.46134479816940      3.11036746420297
  C   -0.24970298977047     -7.07740800937226      2.10637300653407
  N   -1.97424181320051     -5.88767607956339      1.36427720691637
  C   -0.60967115085098     -5.98500894161840      1.38795039183704
  H   0.03205571862297     -5.26535947529497      0.90826975101696
  C   -2.43167057955601     -6.89672067450621      2.06375429447382
  H   -3.46942413120127     -7.11630969290496      2.25448466715518
  N   -6.04182549611683     -2.77382408790508      2.22650101640895
  H   -6.47250332147227     -2.44002968734024      3.07316039705469
  C   -6.53814101255944     -2.63178799208834      0.96280800216739
  N   -4.57475442457611     -3.67009699967574      0.88895152695321
  C   -5.61496273244861     -3.19237997731686      0.13909913680712
  H   -5.63351593430410     -3.26466797693929     -0.93521857957506
  C   -4.86115926582828     -3.40154780036768      2.14219632136084
  H   -4.24841829236539     -3.63279516929852      2.99821775385262
  N   -7.71876004094992     -9.81865792619563      1.26169706452219
  H   -7.59978555296852    -10.64953764718787      1.81787392313611
  C   -8.86993000581954     -9.09507200374143      1.14340900355171
  N   -7.27069329084195     -8.17856138812633     -0.10005208641789
  C   -8.57704460362263     -8.07617733831745      0.29405807193418
  H   -9.22603669411370     -7.29068469310600     -0.05475199914874
  C   -6.78178034986349     -9.24070212409094      0.49741387312410
  H   -5.78040887168732     -9.62502672372620      0.39212133474347
  N   -4.94195064300352    -10.08153278490425     -4.37500562523963
  H   -4.29732551643191    -10.45286786408943     -5.05352566572918
  C   -6.04797100252778    -10.71823900003353     -3.89027600344970
  N   -5.87235809860526     -8.70127174712462     -2.96866112822276
  C   -6.61869742637912     -9.84851666237081     -3.01910795987030
  H   -7.51798880420718     -9.98306184069954     -2.44156317135752
  C   -4.87149215354040     -8.87241022196672     -3.79817380715662
  H   -4.08960767768285     -8.16064565034191     -4.00666872228045
  N   -8.55948153716154     -4.76056367672464     -4.17476515989036
  H   -8.90703998039999     -4.54475496221208     -5.09511233854814
  C   -8.91129799912399     -4.12780000350723     -3.01772200104760
  N   -7.44305558961294     -5.74354047101294     -2.58320559313590
  C   -8.20921249335470     -4.74952396100990     -2.03406476143106
  H   -8.20862472534200     -4.54266615140988     -0.97700496180661
  C   -7.68005262548180     -5.72478601307807     -3.87524813885763
  H   -7.24884711411194     -6.38622025944224     -4.60874918791781
  Cu  -6.42736639457503     -7.20251710043517     -1.65330260124002
  Cu  -2.91502241622926     -4.47230629482639      0.24282901533716
  O   -4.58226446511367     -6.95910298235872     -0.72514223969905
  O   -3.97318527479181     -6.34795652054083     -1.57615632576153
  H   0.58904468078947     -2.45107985816789     -2.95665366800094
  H   0.71506864587054     -7.47980949802706      2.36179698965925
  H   -7.47015017553622     -2.13361929247824      0.76054929199873
  H   -9.77676097044702     -9.35638677824287      1.66016736763921
  H   -6.33305604797540    -11.70708142986631     -4.20452427969170
  H   -9.61367020378496     -3.31318301326452     -2.99177534810483
