81
Coordinates from ORCA-job opt-constrained
  C   42.18174899837820     36.56910299932120     28.76228899816151
  H   42.08337038779930     35.53922949513174     28.43293594365303
  H   43.21794277032256     36.86422540685341     28.59419186848023
  N   41.83651421787049     36.63826067216655     30.16320654705707
  H   41.35426488969676     35.85143682739916     30.55894698479047
  C   41.94756726888994     37.73590033857744     30.92715698850978
  N   42.41423901819847     38.86497255872036     30.41952328189615
  H   42.52404383244669     39.70665297927358     31.01842074826213
  H   42.55585540635003     38.97018427453971     29.43151768933966
  N   41.61463153594965     37.68729723201407     32.20610317183320
  H   41.45277585786533     38.58038003169627     32.73693896262352
  H   41.31396580294332     36.82245262267265     32.61740979614822
  N   36.50380371453722     42.60271453681602     34.87027357740497
  H   35.63054188555686     42.57604696776311     34.37209887269173
  C   36.88848898313011     41.75489098959626     35.86902300355823
  C   37.50372778084519     43.47377872241308     34.65610823116727
  H   37.46462606186012     44.26237464571120     33.92176322528782
  N   38.50432170249996     43.23258217536437     35.46965295637155
  C   38.13695971458893     42.15520207442523     36.22744609214654
  H   38.78483805962822     41.72813302742566     36.97308968795983
  N   40.49956228530790     43.33397296706325     39.54849927150190
  H   40.12851716248493     43.32150796109988     40.48264543994179
  C   41.71536399730955     42.84708800852424     39.15587000416151
  C   39.89275009174900     43.85512111622388     38.46965353905429
  H   38.91914212837222     44.31542290446325     38.49898708943167
  N   40.65167010688766     43.72230347752237     37.40860626925516
  C   41.79951280975668     43.10168628376464     37.82354042769840
  H   42.62915863450154     42.91920608366547     37.15950787523745
  C   45.46035800450066     44.28378200504300     37.64660707810008
  H   45.27202696618362     43.48351203905619     38.36113869820326
  H   44.89371490267367     45.16334766241793     37.94386282080298
  S   44.84319453854745     43.87510687502712     35.98716301908173
  N   39.10519759066687     47.97166244255844     36.89126050636316
  H   39.34675264996296     48.91994205904776     37.12229093272313
  C   37.86953999606415     47.40173600227784     37.00980900109736
  C   39.94870637678330     47.05478315825975     36.39194598916511
  H   40.99737873901569     47.21997398327847     36.21013091491146
  N   39.31487865704245     45.92515430379869     36.17949959305795
  C   38.01609924808774     46.12816221960663     36.56294579939684
  H   37.26366872385483     45.36148010462201     36.50392282988090
  N   44.51165123310158     45.25607231848856     32.04970304796816
  H   44.55711216316168     45.14372451827771     33.05004290302149
  C   45.23513400814609     44.55935900741326     31.12309992271663
  C   43.68831045586016     46.08802762461680     31.37209041977045
  H   43.01053716384982     46.76063918557442     31.87262200616089
  N   43.83672433439929     45.96954617863921     30.08175056566807
  C   44.80057046185706     45.02077679734783     29.91381402381132
  H   45.13630480815043     44.72340140063992     28.93301936560793
  C   47.15264301236964     40.48687798349403     35.68048199406245
  C   46.63992549848213     41.68372231783423     36.18096989629220
  H   47.03780312476557     42.08466892517965     37.10449930475585
  C   45.63409932783736     42.36347054768559     35.50775281110090
  C   45.15373877366600     41.82323837100311     34.30264759437004
  O   44.19803779312131     42.52400793892863     33.66318766584459
  H   43.80742698004596     42.03015064530305     32.91439361915644
  C   46.65904032245527     39.96043454547164     34.50241364998799
  H   47.05225144922931     39.03203390218375     34.11113217375534
  C   45.65829582372892     40.62922938165853     33.81308965764840
  H   45.26315447271745     40.22371423629923     32.88898864937217
  N   41.22119962505882     42.60027548681126     34.77496791908932
  H   41.04709732137477     41.73695646976217     35.28531471563264
  C   40.87274563850563     42.36146286708998     33.36611338072088
  H   39.79436820821890     42.18278793474582     33.33592140724151
  C   41.18102019414338     43.60274185239822     32.55204972964621
  H   42.24685076930215     43.80961578179629     32.45678355548355
  H   40.78584786157375     43.52071293358578     31.53946965706525
  S   40.43771320022987     45.08147666623935     33.32124882633313
  C   41.51394533487317     41.05772262641455     32.85115776013048
  O   42.45593823559204     41.12372742099745     32.02241580335974
  O   41.02491218839202     40.02118652022643     33.33404928340579
  H   42.22743428786185     42.76992681696917     34.83168264331622
  Fe  40.24267888145596     44.26437582264465     35.51936239036584
  O   41.87352937487039     45.26328589382317     35.35290798538634
  O   41.71038357906590     45.83859638475268     34.04118038417079
  H   41.52696571877166     37.18162415611817     28.13853688695993
  H   36.26554050074807     40.95272339971770     36.22320537041066
  H   42.40484375773410     42.38445507632361     39.83955664679869
  H   46.52008043784873     44.53188506870628     37.64247569605768
  H   37.01371421252322     47.93495667519647     37.38450485212018
  H   45.97671722998670     43.83014734067734     31.39905525592456
  H   47.93903205874977     39.97924400538504     36.22186667025706
