58
Coordinates from ORCA-job opt
  N   -0.00461860327142     -4.46961083544751     -2.68825125271862
  H   0.66194957977085     -4.93416427852466     -3.28241310876838
  C   -0.06195805075054     -3.12751805043350     -2.44926197466896
  N   -1.68013885300938     -4.16433251469308     -1.32514379084464
  C   -1.11181203794649     -2.95023311186365     -1.60526067728995
  H   -1.48324042622976     -2.02796206672690     -1.19190910078033
  C   -0.98939877173450     -5.05887725492319     -1.99394665952443
  H   -1.15603548505926     -6.12338634358913     -1.99212871618821
  N   -1.39405085567878     -7.45682339498589      2.73656755698069
  H   -1.47291362208936     -8.16485735722604      3.44767410022110
  C   -0.24193595994536     -7.08111997888687      2.10738900789833
  N   -1.93945619617625     -5.84826704768985      1.37060077743116
  C   -0.59503099108870     -6.07844078883870      1.26455705064564
  H   0.04131788390966     -5.50614658861362      0.61114444295793
  C   -2.39083748410252     -6.69006459892479      2.26839700727777
  H   -3.41236184483507     -6.77329175565925      2.60229547794050
  N   -5.93865275163718     -2.58627666445456      2.19945656405201
  H   -6.31665397166461     -2.15350541061940      3.02622529240507
  C   -6.52981000059007     -2.62140599899362      0.96959899766772
  N   -4.54785294236914     -3.62594444976279      0.88312675603872
  C   -5.65352130981125     -3.26978815996901      0.15866144907247
  H   -5.75122580372201     -3.48919453622995     -0.89105609819633
  C   -4.75048323597476     -3.19870085187659      2.10881057296494
  H   -4.07188479840175     -3.30282839386912      2.93974795701714
  N   -7.69599772273761     -9.81060906286613      1.28393982595448
  H   -7.53615170180588    -10.63462944148696      1.83973566363953
  C   -8.86755098056305     -9.11425098985001      1.20573497743368
  N   -7.33438515455025     -8.16771030836122     -0.10452651465336
  C   -8.62707439374567     -8.09285246337671      0.34266482654817
  H   -9.30740080091923     -7.32351919239074      0.01857435417428
  C   -6.80177276985050     -9.21567135750083      0.48064100854472
  H   -5.79714833604300     -9.57970935062839      0.34053294513947
  N   -4.99879827628055    -10.05769914455069     -4.40071223200691
  H   -4.37745412827022    -10.37722852522825     -5.12555188251825
  C   -6.02621199689213    -10.77190100369632     -3.85601200509112
  N   -5.91764383563481     -8.76313540133076     -2.90610969667595
  C   -6.58900357956697     -9.95693873606147     -2.92922055637256
  H   -7.43569885955567    -10.16245340005137     -2.29589915069509
  C   -4.96815904621859     -8.85523609729344     -3.80569033834606
  H   -4.25158174047676     -8.08981644740996     -4.05473380033320
  N   -8.39403709107024     -4.51768748329551     -4.20438284207007
  H   -8.65503364889654     -4.20606288780751     -5.12580194172091
  C   -8.90669901068636     -4.05426098389310     -3.02779200198748
  N   -7.39263048171585     -5.63441793172271     -2.62293178639100
  C   -8.27381126796548     -4.75440264201199     -2.05115637431115
  H   -8.39858227691363     -4.67846850049380     -0.98399519251575
  C   -7.49260676340038     -5.46699276802600     -3.92241562779113
  H   -6.94745554824450     -6.00932396986712     -4.67729540321915
  Cu  -6.68225138517306     -7.26055307263605     -1.77857287916431
  Cu  -2.91325282643339     -4.48334056776822      0.22259405796885
  O   -4.05642289616995     -6.85010973941276     -0.99509278209791
  O   -3.50591572328451     -7.86860505544802     -0.71887306481048
  H   0.62473033540068     -2.42749356218833     -2.89195030499166
  H   0.70965734412009     -7.53621683086788      2.31992388893495
  H   -7.49010614426159     -2.17651747845871      0.77655524236092
  H   -9.74834695786811     -9.39290467976520      1.75721670891203
  H   -6.26717472414884    -11.77279850296951     -4.16900394453591
  H   -9.65847187920447     -3.28562489696829     -2.98563632041890
