82
Coordinates from ORCA-job tsopt
  C   5.22736300067832     -0.43983398339642      3.41636899951237
  C   4.03328153662870     -0.91215648389510      2.67065951681415
  N   2.80594668762159     -1.14032772415763      3.24284882796905
  C   3.85210575940624     -1.17501611256006      1.34945629586339
  C   1.94392962939790     -1.50167372704719      2.27876183219609
  N   2.55411327615962     -1.54075001789812      1.12267518959689
  C   -1.25866899803683     -4.83209001904829     -0.14837800571975
  C   -1.00146193495683     -3.34829112891859     -0.28338918583731
  O   0.17143217919216     -2.97391399272880     -0.09365563779532
  O   -1.97603317150593     -2.60048316750477     -0.55118459808708
  C   2.76232868127321      2.33816743198305      1.01033212410646
  O   2.09492648237165      1.44682210359143      1.55375544447519
  O   2.39094879452401      2.95761272070512     -0.04030591217231
  C   -0.76986899323656      0.82507201166549      3.50210800176503
  C   -1.49695935533427      0.48070504718673      2.23474086415998
  O   -1.99904123032372      1.38266848365908      1.54795358187433
  O   -1.50489517335877     -0.74300329150702      1.89415756431594
  C   4.86726298333474     -2.55582099739948     -2.83783699741031
  C   3.66622119553387     -2.08931389506342     -2.06116530360536
  O   2.78495402492096     -2.94889656101301     -1.77825168421718
  O   3.57923284816088     -0.89990736200596     -1.70344082048471
  C   -7.63191500499113     -1.70023399823642      0.50485399629307
  C   -6.29491991110496     -1.05963676181108      0.39666287342406
  N   -6.06276115065233      0.24956333703250      0.74524979279284
  C   -5.07812845128745     -1.52977202274589      0.00278583040819
  C   -4.75960561858250      0.51985288047452      0.56816027998234
  N   -4.14044534873613     -0.53884682794432      0.11451478609654
  Zn  -2.06504379516705     -0.68497842722419     -0.00213142621986
  Zn  1.57069343282099     -1.69942906823034     -0.72106940078793
  C   0.75360290964383      0.65610537458397     -2.43346173699087
  C   0.21180763667421      1.28867528122429     -3.70902590073859
  N   0.75513576581926     -0.80969867134404     -2.55996964667287
  O   -1.32406983805671      0.49731991231245     -1.32631380677512
  O   0.54829441551361      0.15057739114374     -0.11215327078481
  H   -7.99967400089778     -1.70384894337190      1.53242355103504
  H   -8.37835667994518     -1.20216036349088     -0.11646582527030
  H   -4.81507485472430     -2.51568775081505     -0.34214702038489
  H   -6.74754628935000      0.89610660338989      1.09673367712150
  H   -4.29383092745852      1.46223649537901      0.80330128087139
  H   6.07059469836133     -0.34718554591128      2.73504202698548
  H   5.06320910044151      0.53997428314194      3.86900333329746
  H   5.52323366604740     -1.12850753680906      4.21024611007766
  H   4.56606580085185     -1.09256112926192      0.54862637190844
  H   0.89573917783087     -1.69878429262386      2.44399732347101
  H   -0.50992060335720     -5.39700311921705     -0.70146329023884
  H   -2.25355410132940     -5.11072898953296     -0.48708822778119
  H   0.26364010483223      1.07206635135913      3.25015511505713
  H   -0.76169356360721     -0.00566886889729      4.20644860285313
  H   5.42032850751742     -1.72310247613656     -3.26609267017926
  H   5.53833950739531     -3.10087554804988     -2.17063378160035
  H   0.34594181499100      2.36772602528028     -3.74874768532078
  H   -0.84773582621783      1.06759009192664     -3.83800785408100
  H   1.33306676196562     -1.08665903986219     -3.34475884525654
  H   -0.19284926264066     -1.11605262272384     -2.76367432882942
  H   -1.15871962968310     -5.11512523454443      0.90071638411460
  H   4.58045535455461     -3.25029999485446     -3.62637729834458
  H   -7.57343755021173     -2.73555702305284      0.17635608686625
  H   -1.20137118587595      1.70251219183861      3.98015689258957
  H   1.23082952442936      2.61724272723653     -0.34822022064976
  H   1.09866437495415      0.68142351748146      0.53968266415775
  H   1.78850147850155      0.96879456776341     -2.27170192791914
  C   -0.08061932770573      0.90370861513926     -1.14597527911124
  H   0.74725014276132      0.88879424558235     -4.57251199834126
  C   4.11687701130830      2.69322399259710      1.58930200633567
  H   4.09412401565589      2.62689426366635      2.67512881748504
  H   4.44410812028242      3.68500626689231      1.28631492958991
  H   4.84711382649628      1.96684448608745      1.22796104574869
  N   0.03626798386314      2.32941998051124     -0.62547510793917
  H   -0.47717718767830      2.32237273347452      0.26552607221049
  C   -0.48617232693419      3.46483341108424     -1.39303097027344
  H   0.11954933499360      3.58240712048100     -2.29158729277495
  C   -1.96380596874235      3.37247853188963     -1.77379267008548
  C   -0.31292960720416      4.72981778967723     -0.54659313719459
  H   -2.56780122092363      3.18336866610338     -0.88783774420668
  H   -2.29528848105707      4.30954885754598     -2.22514509482317
  H   -2.14659944527213      2.56964043823372     -2.48060925337566
  O   -0.44708452826199      4.70988741231254      0.64704460223241
  C   0.00999809377028      5.98006255573371     -1.31801396750067
  H   -0.53180330844000      6.03063509883623     -2.26310781929737
  H   -0.19367700703148      6.87146503166769     -0.72970891865309
  H   1.07510714484682      5.96246670027351     -1.56296567006254
  H   2.56450051049396     -0.98838948145187      4.20621511715095
