116
Coordinates from ORCA-job tsopt
  C   6.44927900169241     -0.49571899690428      4.86939200121327
  C   6.06343598488805     -1.93767045719403      4.64136192063604
  O   6.31250027878389     -2.80341442255631      5.45577343809863
  N   5.42155347485970     -2.15583963764286      3.47342630266110
  C   4.76420601616534     -3.39788001678399      3.15432500713529
  C   3.25973698675838     -3.30212590283704      3.32981359303675
  C   2.59545442695620     -2.30663731122416      2.39129095180247
  O   3.23502789747185     -1.72195050420113      1.52425898782941
  O   1.33439164383755     -2.19186870509179      2.61545785077260
  C   -5.27958415461611     -1.94896198831000     -1.57923300051012
  C   -4.10746411052890     -1.62552508575760     -0.65451060517842
  S   -2.59986651892427     -1.27015485231621     -1.61303993793601
  C   8.43726299990471      0.34949699675997     -3.11230500601195
  C   7.32624866536802     -0.32364574387204     -2.37235950169601
  C   7.12305557866982     -0.34782114203060     -1.02201524979332
  C   6.24613529698453     -1.07477511890902     -2.94611677320938
  N   5.99757737511503     -1.07011856440625     -0.72279381202530
  C   5.43637174378387     -1.52160284792526     -1.88338425799204
  C   5.87179947044406     -1.40102121927517     -4.25424722408542
  C   4.27503191141049     -2.26188339346998     -2.07949836241397
  C   4.71904126370742     -2.13314885021290     -4.45673399644111
  C   3.92234801283842     -2.55372299866469     -3.37885199815310
  C   2.48666603372429      6.17351208049095     -1.17925595944971
  C   1.71144492624194      5.79095091552797      0.07207978571214
  N   0.81982642299420      4.68778613745810     -0.20804538995711
  C   -0.47530566156536      4.61078465441781      0.06069751655701
  N   -1.01635584047871      5.45036760218179      0.97760014777154
  N   -1.25326711304268      3.79587251211765     -0.60776807795305
  C   -2.62872603805266      1.10721098716583      4.94033596937473
  C   -3.74750033368797      0.67718237556903      4.00889432020427
  O   -4.79779992740885      1.60758667619682      4.18706137000068
  C   -3.25043179454393      0.61551537507653      2.58499577358940
  S   -2.01150141515478     -0.56399904954710      2.24518938571011
  C   -3.75697635537835      1.40402378982404      1.62058174991889
  S   -3.11204839918487      1.39729768518184      0.01664819723750
  C   -4.98070651403028      2.23456265187527      1.88201096404171
  C   -5.68836621460313      1.69438902251327      3.11021133037873
  C   1.51497397942828      3.21874194287083     -3.49942904412648
  C   2.18675681798164      2.17116160328217     -2.62287859704442
  O   3.34445648646125      2.78272796004451     -2.08476105038118
  C   1.26993379535217      1.66176765555560     -1.53060192726528
  S   -0.29690445138276      1.06781210743361     -2.01402841255500
  C   1.65794375354603      1.68052369888835     -0.24206330878258
  S   0.55419271676821      1.26288858803510      1.05684781308996
  C   3.07917196736542      1.97027495073458      0.15371155676339
  C   3.94845632787842      1.99068455690719     -1.09020090066577
  W   -1.15789757899055     -0.18534953795200      0.09315903555050
  O   1.49047215107365     -1.44678014462122     -0.98224651726701
  C   -0.31756494549325     -1.96156825612608      0.58704939130194
  C   0.17109488956074     -1.77151956662545     -0.71226618001100
  C   -5.49566832149759     -3.46201245143631     -1.81732711445336
  O   -6.53332982990038     -4.01455794164613     -1.50834260081864
  N   -4.47839464976687     -4.12477102994583     -2.40787783725434
  N   -6.51259112880033     -1.38332422990473     -1.07350883473031
  C   -7.54375249217634     -1.05238988955061     -1.89492221507998
  O   -7.44621145096018     -0.99638309587746     -3.10170570252429
  C   -4.59005999185789     -5.53342599758069     -2.73696099810369
  C   -8.85889485689709     -0.73154801357185     -1.19638697423175
  H   5.81727031002794     -0.07728157574092      5.65358033302840
  H   3.01068995905967     -3.04922996068469      4.36355229516990
  H   2.80053682882823     -4.27815257671045      3.14564131077266
  H   5.17121951475906     -4.16736676905215      3.80715718675401
  H   5.14519626105729     -1.36435868099614      2.91747914031745
  H   8.05660882468098      1.09644903857376     -3.81223889849146
  H   9.02615500938020     -0.36456594001253     -3.69221623755616
  H   7.71374245239841      0.10200958928058     -0.23896581500449
  H   5.58834971090830     -1.19840577455026      0.18627290459799
  H   6.46976807661693     -1.07514037532217     -5.09694445714610
  H   4.41282373182182     -2.37783438628002     -5.46586061465683
  H   3.64694265404379     -2.56192339630485     -1.25403318654021
  H   3.00681272177530     -3.09729973601202     -3.56652431203183
  H   3.05104702681975      5.32429468066524     -1.56350713655106
  H   1.81230074123291      6.51645047546279     -1.96319820107911
  H   2.40158022544955      5.51820841377274      0.87545077354387
  H   1.12466468613782      6.64130094199065      0.42116120743807
  H   1.21921903653831      3.85608541192952     -0.64225517614190
  H   -1.99731756083091      5.33011499732568      1.16624732605025
  H   -0.46393736768748      5.65318329249339      1.79310691769284
  H   -2.06928741023932      3.37040526273421     -0.16367687176697
  H   -0.86132808093742      3.12366390157752     -1.28400453279654
  H   -3.90752045402903     -2.43265649563089      0.05464877983935
  H   -4.37164306452566     -0.74204027142031     -0.07590419855694
  H   -2.23152375175907      2.07426937229204      4.63044783421378
  H   -1.81379731131561      0.38593932301199      4.91642451974622
  H   -4.09367613971898     -0.32669562487884      4.30594072800025
  H   -5.64158377578029      2.19465571178909      1.01184212263474
  H   -6.13381745207530      0.71653491820931      2.87301630742285
  H   1.15093129612909      4.06631116082571     -2.91728864820394
  H   0.66462132323291      2.78380485358650     -4.02081274230777
  H   2.47930681527230      1.31515082221419     -3.25070712158132
  H   3.42046297501480      1.18381723044875      0.83345281182496
  H   4.10158263318183      0.96631702294789     -1.45322377867912
  H   0.71456047150794     -1.86346297827433      1.78396517869532
  H   -2.98763732550514      1.18793228918418      5.96799694108734
  H   -4.72256753110682      3.28935093195653      2.03059932033284
  H   -6.49953725811504      2.35524342329132      3.42549972261811
  H   2.21891848021055      3.59567058058610     -4.24243465532551
  H   3.18946915080497      6.97670319084887     -0.95657396765946
  H   4.93318398768092      2.41879771856417     -0.88979096586547
  H   3.16276753064997      2.91268651282950      0.71239860261190
  H   7.47760566796685     -0.44265716873921      5.22264768092881
  H   6.35109311515250      0.13509143090412      3.98633876852092
  H   9.11893407631304      0.85763615075139     -2.42988150588500
  H   5.00683241401328     -3.68047275869679      2.12814362321750
  H   -5.09965086594454     -1.47624150913729     -2.54742106942495
  H   1.93649201049893     -1.23649786137349     -0.15305592274236
  H   -0.83990380796849     -2.82451762668047      0.99146103184133
  H   -9.51330652843045     -1.60143120139062     -1.26403461861224
  H   -8.74257193347071     -0.47606528105464     -0.14286590277574
  H   -9.34553879109987      0.09483257630105     -1.70910406831164
  H   -0.25702273409832     -2.26043753633190     -1.58479877758794
  H   -3.60625489952409     -3.63976948406487     -2.56341580742512
  H   -6.73826988948850     -1.59838780691579     -0.11649339036852
  H   -5.45373864070463     -5.71705317633226     -3.37550122494210
  H   -3.69168044190847     -5.83496367115844     -3.27048332832153
  H   -4.68961857914411     -6.15529962531982     -1.84585615823302
