81
Coordinates from ORCA-job opt-constrained
  C   42.15807299627998     36.59757700578511     28.78840600131605
  H   42.00170891635920     35.59578574444993     28.39978372566755
  H   43.23204981531666     36.78499646617557     28.77165436439066
  N   41.63659500617806     36.65687945938912     30.13264618980486
  H   41.01830876118143     35.92157390685097     30.42468753051752
  C   41.75924676065018     37.71898364667335     30.94225275339621
  N   42.40655713296574     38.79750334831706     30.53447241854268
  H   42.52022733352430     39.61674051274429     31.16535499763707
  H   42.66657194077934     38.90977783487508     29.57152842697649
  N   41.25787487837118     37.68122348517088     32.16575818950472
  H   41.11033167493790     38.57756696144334     32.69079505183218
  H   40.82488520255013     36.84337407305786     32.50909745036151
  N   36.52541452705234     42.64499902123461     34.81745163977093
  H   35.66510768963031     42.59268101711117     34.29869305261810
  C   36.89591197201748     41.82637398962123     35.84740401188774
  C   37.51371806405394     43.52871894669426     34.60665697139152
  H   37.48359985325923     44.29766428406070     33.85152351048890
  N   38.49677242682431     43.32292355319271     35.45015076593982
  C   38.12728824161030     42.26064214440780     36.22990720464385
  H   38.76269821841115     41.87458063173851     37.00839627235344
  N   40.73885521363409     43.46040892586436     39.72197510758614
  H   40.43671606838470     43.54171314413540     40.67755625571201
  C   41.84212699147661     42.78432701662371     39.28070998394332
  C   40.14281601380524     44.01785018905737     38.65503353539172
  H   39.25257927781249     44.62143678501683     38.72319666365316
  N   40.79847323626221     43.73417973115297     37.55735074971564
  C   41.86659544693234     42.96759590737766     37.93347062626297
  H   42.60988918196178     42.63328564759281     37.22825333610523
  C   45.42014799466624     44.29350699809710     37.65568599069604
  H   45.21931428843907     43.49909133005173     38.37306129562840
  H   44.85829409268537     45.17921861833606     37.94319328949864
  S   44.81158584324304     43.88271260443120     35.99203832402871
  N   38.93533662550615     48.08836718106794     36.73061396058160
  H   39.08531012723770     49.07877562467145     36.81978794961145
  C   37.81575302185475     47.40471198526837     37.10847299638839
  C   39.80281328255773     47.21599120752585     36.19845205599257
  H   40.77746905401261     47.46990785284493     35.81611856597068
  N   39.29466226620652     46.00535341408207     36.21793782853363
  C   38.05257560796059     46.10861539027017     36.78264476560624
  H   37.40457809539382     45.26010871626108     36.92065820909247
  N   44.50051757989460     45.21625350367391     31.81228422440389
  H   44.40636095985626     45.13134388840574     32.81159896461696
  C   45.32357199820438     44.47968302097209     31.00889100255098
  C   43.80438741996545     46.05432275304276     31.01128849409346
  H   43.08268235607464     46.75607030524605     31.39734220166599
  N   44.12571187437954     45.90204080065399     29.75634115030885
  C   45.07455771487643     44.92403948190069     29.74202188551282
  H   45.53358018894082     44.59512240761123     28.82315646842062
  C   47.14508202106892     40.50677698152644     35.68420901569527
  C   46.62187002198096     41.70051211398290     36.18341121875009
  H   47.01795669273111     42.10629322624142     37.10563584905056
  C   45.60753000159202     42.37193813831814     35.51246599516102
  C   45.13140953512271     41.82476951305681     34.30886144034262
  O   44.17093420590346     42.51169235177898     33.65901079192623
  H   43.74418083846473     41.97100478455705     32.95997437342582
  C   46.65285033930105     39.97329259643919     34.50913144414594
  H   47.05278241636492     39.04748681798008     34.11851211485741
  C   45.64539652312504     40.63315534119706     33.82197026267436
  H   45.25330956267766     40.22275163291551     32.89900091974447
  N   41.26467294054871     42.75028230745739     34.61856891909613
  H   41.10608794265726     41.92090847184271     35.18844445383046
  C   40.84446034184835     42.41946312228869     33.24396638377610
  H   39.75751100492605     42.31805222192627     33.26469193458237
  C   41.21520694146432     43.52493467048489     32.27331636601463
  H   42.28167638379657     43.56768667690110     32.05408421141992
  H   40.71986415318226     43.35373856784075     31.31482108636321
  S   40.71918725321578     45.18256960362448     32.79552611684544
  C   41.39562599010251     41.04054371669876     32.83360455113500
  O   42.45724094771757     40.99700264460424     32.15800598505086
  O   40.73807172580968     40.06614358277933     33.23385253227131
  H   42.27594902533952     42.90419639721912     34.62983714552283
  Fe  40.29408380097409     44.38304437081867     35.47645946308472
  O   41.72225857105212     45.54666456857840     35.12494128007994
  O   42.00202958880753     45.64306211368937     33.72501960512409
  H   41.65920450938804     37.29660400696041     28.11319521086799
  H   36.27598159924703     41.02475231111340     36.20752274033833
  H   42.50186398736793     42.25340249641379     39.94419565558963
  H   46.48162134573388     44.53362096390044     37.65572641511151
  H   36.96548348773707     47.88369315834814     37.56147201093962
  H   46.00076303983749     43.74004732816498     31.39930453463819
  H   47.93726062473460     40.00817798060338     36.22551163054786
