116
Coordinates from ORCA-job opt
  C   6.39072700137073      0.13209499760396      4.96039100111606
  C   5.96446054996194     -1.31823687751371      4.93871380735786
  O   6.31311256036220     -2.09864226254724      5.80668917309927
  N   5.19416482691627     -1.63055154821116      3.88867614509217
  C   4.67569100205463     -2.94204799908949      3.61435900074692
  C   3.24371498997828     -2.88435897576479      3.11133546423649
  C   3.08082654589511     -2.14835302158302      1.77949362460086
  O   3.92373606479426     -1.26799173838588      1.50198069358519
  O   2.10604564751300     -2.49573257748231      1.08087308547640
  C   -5.32269699174672     -1.97598000626282     -1.33363500081990
  C   -4.24308926039727     -1.63078291762094     -0.29534998019542
  S   -2.55950830006692     -1.78009961556996     -0.95772560230074
  C   8.43174299926610     -0.06445900179289     -3.05020199799212
  C   7.28678559230532     -0.59835459392184     -2.25071268866726
  C   7.03713865774655     -0.40066861430342     -0.91907888057728
  C   6.21216028421779     -1.41703238259095     -2.73005478742607
  N   5.88856271022747     -1.03748021162042     -0.54638763414309
  C   5.35718568018197     -1.65880278183052     -1.63412234977540
  C   5.87647745510559     -1.96369464245943     -3.97481804765554
  C   4.17769645087411     -2.39353610684296     -1.74400378640347
  C   4.72216935927701     -2.71143165001919     -4.08576888773901
  C   3.87955399951768     -2.92044700082508     -2.97877300339113
  C   2.55015504399338      6.03245511992009     -1.91004193961505
  C   2.43741984058027      5.49854116606445     -0.49044962709213
  N   1.42607316453127      4.46499796639239     -0.39975801093042
  C   0.22864800120014      4.56535598681986      0.15559016997203
  N   0.01262399120904      5.47988964779613      1.12831139927687
  N   -0.77010056083275      3.83271835014430     -0.27747659179390
  C   -2.66508899882429      1.84638500007603      4.76543599766802
  C   -3.71856738469015      1.28352280214192      3.81709764957094
  O   -4.81070564122794      2.18131008440035      3.84394009326709
  C   -3.18627626147742      1.08801391086089      2.41701082250255
  S   -1.70743268269449      0.16879873185354      2.22204832277518
  C   -3.76920585910264      1.64741207938150      1.34877496846327
  S   -2.99141845301419      1.54804496771456     -0.22775524772327
  C   -5.08476306138920      2.35493508790317      1.45753060362442
  C   -5.71970526110780      2.00002565642754      2.79200807550351
  C   1.55089695412839      2.82053088618815     -3.84472505254641
  C   2.25672079444406      1.87506340965018     -2.89649410346741
  O   3.40266535140050      2.55154534636983     -2.41406427159084
  C   1.39000836373983      1.42480271780897     -1.74231440454473
  S   -0.32542515630279      1.12672518142896     -2.00710056083028
  C   1.89579058839488      1.31481082388171     -0.50180884520171
  S   0.87728123746998      0.91319599827167      0.85871781095703
  C   3.34350565660757      1.57712000061130     -0.20682011324474
  C   4.12136452977918      1.74890188083688     -1.49916091254835
  W   -1.18275445473836      0.06158033224639     -0.05772038092296
  O   0.11904803354400     -1.72799813747394     -0.33812039120183
  C   -0.26405891191780     -4.59403788034219      1.05737543380379
  C   -1.38662687532381     -4.79928526646772      0.68557816532002
  C   -5.57649565994221     -3.49774769796875     -1.43730532074092
  O   -6.64248407834208     -3.98513591260860     -1.11770427871665
  N   -4.54717910972382     -4.25068677976936     -1.87935845881441
  N   -6.55479084901238     -1.32883417215783     -0.93423796892223
  C   -7.57571571228703     -1.07812622962043     -1.79750475218742
  O   -7.46422415866171     -1.15133004464029     -3.00075301033555
  C   -4.67550100236918     -5.68657299809459     -2.02415599887421
  C   -8.88722300289355     -0.67451999879291     -1.13248499944757
  H   6.13241338309814      0.57220972141619      5.92306953016221
  H   2.61176410082067     -2.38596519622069      3.85402856079375
  H   2.85365145230260     -3.89917035901848      3.01169180624757
  H   4.73131178566785     -3.52837335100643      4.53117127523946
  H   4.97053093425111     -0.95172587176908      3.17552241696107
  H   8.08900569538450      0.57411494789603     -3.86774866262067
  H   9.02406740622793     -0.86665059675333     -3.49655055711542
  H   7.61469926064983      0.15901341451521     -0.19910061451048
  H   5.41746485806306     -1.03686705768711      0.35437415651023
  H   6.50932122851214     -1.80016544411952     -4.83929797081699
  H   4.45146488443997     -3.13817150395146     -5.04339269533492
  H   3.50929432978864     -2.52566412685581     -0.90563404860059
  H   2.96775947819342     -3.48938937475176     -3.10498279541951
  H   2.85593541526642      5.24101270425488     -2.59157330804439
  H   1.60041034571437      6.44337356303553     -2.25140362825908
  H   3.38960994406653      5.07738230238853     -0.16612540161230
  H   2.19311684657035      6.30838009673698      0.19626581289980
  H   1.60306942513879      3.60578280650883     -0.91771772870307
  H   -0.90674135141411      5.50900342822408      1.53446647738295
  H   0.76177971114455      5.65964142610450      1.77391026768720
  H   -1.53399893291482      3.55190591441354      0.32377056367274
  H   -0.62720382002131      3.15112412277449     -1.03093061595208
  H   -4.33508182185871     -2.26553651444290      0.59024648124105
  H   -4.40243960909753     -0.60325964625352      0.02066927221492
  H   -2.28740419123331      2.79881668096143      4.39189974291413
  H   -1.82445754059477      1.16152826806779      4.85331140071850
  H   -4.04297381833119      0.30268105238442      4.20461292673292
  H   -5.74168383038662      2.04817059821131      0.63787265254744
  H   -6.08268985703244      0.96148127892118      2.75602378904220
  H   1.13762888951570      3.68815198829467     -3.32685736854657
  H   0.72280621088699      2.31824567072660     -4.34118877297126
  H   2.57483502975129      0.98542082184137     -3.46448300526827
  H   3.73703684434860      0.73661158581988      0.36558448345713
  H   4.32681328250212      0.76844613888781     -1.94405843299383
  H   -0.34296309010547     -2.56342817461744     -0.17897448109388
  H   -3.09343580756664      2.00372284976939      5.75600114295309
  H   -4.96300830596043      3.43978525797721      1.36435827365933
  H   -6.57983637513927      2.63919860459459      3.00466170919790
  H   2.24466895975121      3.17343742585454     -4.60870806542515
  H   3.29966374180861      6.82328182294250     -1.95584722522720
  H   5.08343373467598      2.23545425112982     -1.32809108024995
  H   3.43779113866216      2.46031694863743      0.43904892392423
  H   7.47526451116527      0.19214773182043      4.86435860000969
  H   5.94210039007578      0.73692603257503      4.17332726247541
  H   9.10406621274777      0.53051687054685     -2.43128076340671
  H   5.30488908133816     -3.45307330676657      2.87688964953059
  H   -5.02855978902114     -1.57571755488465     -2.30542658004702
  H   0.98699553340890     -1.81009616951267      0.16238481654711
  H   0.72788548806610     -4.32561089946871      1.35255696519571
  H   -9.50855446342169     -1.56289473293862     -1.01075595868866
  H   -8.74966490006085     -0.22071712441519     -0.15091416006265
  H   -9.41859415458285      0.02351046928528     -1.77460117095516
  H   -2.38653113490282     -4.95131057945973      0.35653685663311
  H   -3.66590006421116     -3.80358669643976     -2.08568720410165
  H   -6.80354526409689     -1.44095834150790      0.03504619793254
  H   -5.44968722441299     -5.94630696726999     -2.74680033124462
  H   -3.72607130770135     -6.08452807944687     -2.37490349516689
  H   -4.92606260334359     -6.16783460593892     -1.07801065552584
