101
Coordinates from ORCA-job opt
  C   -0.95036199110199      4.82505900777991     -3.62484203462960
  C   -1.25605825036995      5.03261630494864     -2.14401279754408
  O   -1.05340930355312      6.10928271985737     -1.61467570252882
  N   -1.77710169656718      3.96580309758630     -1.49900675390044
  C   -2.23189702172323      3.97971696064944     -0.11889294412279
  C   -1.34025603785941      3.20151399917746      0.84455582061243
  C   -0.99610287990970      1.79555771336905      0.35482047346832
  C   -2.24028655747303      1.04570525178937     -0.15459083045085
  O   -3.14931992987523      0.84401523153448      0.65596331910429
  O   -2.21898871211204      0.73653176122644     -1.37974762565162
  C   -6.30649799622370     -0.06790395616110      3.63025092712013
  C   -7.00982021501765      0.36546970855954      2.35031969666258
  O   -8.22309611873187      0.49090134921412      2.32668595443065
  C   -4.99353641782700     -0.81541024331365      3.50648676060639
  O   -5.21325712849549     -2.04434300446215      2.88499541089883
  N   -6.23635190468866      0.68261596907857      1.29627668017778
  C   -6.81285199537559      1.19985697501083      0.08059305813576
  C   -7.23245700041702     -2.46579699895331     -2.39507199847112
  C   -6.77414173997230     -2.24567320129364     -3.68707865075862
  C   -6.43977279056579     -2.05282186555485     -1.32958493071223
  C   -5.56177719522127     -1.61565288038482     -3.91307394904346
  C   -5.22193902509715     -1.42376098452330     -1.54046776715926
  C   -4.76975919466479     -1.18489639906561     -2.84268456521500
  O   -3.62254541216995     -0.57127793777759     -3.12210485200861
  C   -3.77864799583242     -4.70902898803706      0.80907099701152
  C   -2.78257322750633     -3.60882176923237      0.80661973095362
  N   -2.69080666670155     -2.72899755102498      1.85028135403453
  C   -1.87878619832154     -3.26517580858378     -0.15493663176130
  C   -1.75897999530443     -1.87224387581567      1.52141458681941
  N   -1.23148038542651     -2.16051055024016      0.32287184452326
  C   2.75834499702268     -0.59790399728773      4.56320799523731
  C   1.78549002470792      0.34992920022499      3.87391262810096
  C   2.13002186434877      0.50948673123020      2.40990669361067
  S   2.20506350747539     -0.91563741237200      1.43917907224231
  C   2.41634208632473      1.70589281718752      1.86773805062520
  S   3.03495641234894      1.80186673048441      0.26042219569529
  W   2.59685117441899     -0.28279975321701     -0.82565288384511
  C   2.22595944160240      2.97505828118768      2.64047311423022
  C   1.34637326783782      2.67067129084048      3.84171672708866
  O   1.86225288311640      1.57713630125075      4.55557578131015
  C   6.73062699924315      0.47838900252367      0.79959599998264
  C   6.88695426484070     -0.64248626662260     -0.22288896441891
  C   5.52771123888581     -1.02414266610776     -0.75408514007537
  S   4.72404728820904      0.11649227652896     -1.77995544127982
  C   4.95755293973821     -2.23044729869431     -0.45507166868135
  S   3.32132923089904     -2.55128144121145     -0.85578578456295
  C   5.78876279491886     -3.30584690882022      0.17183793362317
  C   7.25509137679389     -2.98433793910083     -0.05243384773846
  O   7.54415003674709     -1.70089895911599      0.43105398673110
  O   0.91578311531397     -1.02345868091480     -1.41602675496798
  O   1.85274217474580      0.72128901349744     -2.29488273836648
  C   0.73379938612228     -0.10507755257160     -2.46740877711945
  H   -1.59018905048186      5.48374325023965     -4.21134232772537
  H   -1.86760295363558      3.14086589031131      1.79948933999525
  H   -0.41651566015280      3.76111180319397      1.01839222873423
  H   -0.54290353092472      1.23431178903551      1.17935907095677
  H   -0.24029425156180      1.86756751094445     -0.43001010717558
  H   -3.23812130715998      3.55645926529677     -0.09087175372661
  H   -4.58554053048642     -0.93548754624435      4.52455318234426
  H   -4.25621809143809     -0.20274216283474      2.96797711518117
  H   -4.34188434687395     -2.37459780939883      2.59631160232021
  H   -6.13494992015307      0.84126666011885      4.21744531296992
  H   -6.00805882046634      1.36167838316340     -0.63165873631820
  H   -7.33002206511497      2.14598768495103      0.25339161989193
  H   -7.37173937446907     -2.56065348058553     -4.53449938375225
  H   -6.76774639212029     -2.20679628897372     -0.30816210882963
  H   -5.21483631778178     -1.43537852490700     -4.92320905356054
  H   -4.62839023474403     -1.10083581589963     -0.69315651509029
  H   -3.19767948125703     -0.13731087175232     -2.33003428954486
  H   -3.67951389030548     -5.33074721916357     -0.07983980788906
  H   -4.79595165709769     -4.31413439153236      0.82207043931528
  H   -1.66590026163324     -3.68528724451125     -1.12243101668464
  H   -0.52830951675073     -1.63369864280135     -0.17468187932238
  H   -1.45073851785394     -1.02256851959867      2.10780904529346
  H   2.68019146465197     -1.60247598174000      4.15025790754587
  H   3.78363416708267     -0.24996478914353      4.43773281430660
  H   0.76566334932595     -0.06134351214094      3.95069149800895
  H   1.75167559318609      3.72988891975544      2.00928017858265
  H   0.31659210830071      2.48417966405562      3.50605326214567
  H   6.05679126133527      0.17369763840561      1.60018593583186
  H   6.31718761103672      1.37268696529017      0.33631821761327
  H   7.49498920696680     -0.28119454843811     -1.06848346854005
  H   5.52945523436939     -4.27261509361788     -0.26778639710296
  H   7.49784010673982     -3.08226859106828     -1.12013638402320
  H   1.32012346761357      3.51505236091791      4.53165486536586
  H   3.19015304383115      3.38272567670533      2.95802962786076
  H   2.53546649887990     -0.65358022495182      5.62871497112337
  H   7.70034531443146      0.72809717722327      1.23045830320607
  H   5.57014024532327     -3.37605891204786      1.24142440762168
  H   7.89533979924392     -3.67682620867160      0.49552025463535
  H   -1.09960615470140      3.80247262596933     -3.96999609506152
  H   -2.30976088995507      5.01902285498148      0.19655444061555
  H   -3.66495353890679     -5.34836970762059      1.68588368021433
  H   -7.02039632950692     -0.66746297017671      4.19660311837864
  H   -7.52287840963038      0.50291137771908     -0.36442724033703
  H   -5.23568320224077      0.54859983853551      1.30191461934679
  H   -1.90643073998888      3.09772103213490     -1.99622448212866
  H   0.08170587321823      5.11189011494338     -3.81942409299248
  H   -8.18379146475079     -2.94974315282294     -2.21842800201867
  H   -0.20745230168770      0.43861711441003     -2.32384103269896
  H   0.74274050195732     -0.60601295916457     -3.44300139737313
