116
Coordinates from ORCA-job opt
  C   6.39348098068252      0.49222094556221      4.96882595265383
  C   5.91844543494682     -0.94423293236766      5.12163122243104
  O   5.89287548060352     -1.49636609775252      6.20700595459426
  N   5.53513715548665     -1.49488667814084      3.95861503164172
  C   4.75094402075248     -2.70024393163945      3.82265502146810
  C   3.35965377552272     -2.37935762894671      3.28226849874492
  C   3.36826012678190     -1.66639034046681      1.92213250458070
  O   4.25391578228698     -0.78156598013472      1.74250287729461
  O   2.50396377894930     -1.99631966733187      1.10126499642162
  C   -5.27555794323182     -2.28517099516823     -1.14529201266519
  C   -4.07264954139845     -1.77183417141901     -0.35564534176993
  S   -2.68043902173612     -1.44385884091553     -1.49366449470410
  C   8.42609197269471     -0.15563901013287     -3.02008697185655
  C   7.24182038515516     -0.58689568346593     -2.22329323269236
  C   6.89418667928210     -0.17582547000907     -0.96365330565670
  C   6.22170872739948     -1.50604070726119     -2.62763500399506
  N   5.72973698742487     -0.76221489318222     -0.56820216459019
  C   5.29247642555109     -1.57246927876325     -1.56876020355116
  C   5.99224128610681     -2.28589168873114     -3.76856787165000
  C   4.13489442798000     -2.34520380599095     -1.62880088702137
  C   4.86864080801468     -3.08597293429582     -3.81736708417353
  C   3.94418901599938     -3.10983496677724     -2.75648799906151
  C   2.40103204874534      5.85793409886430     -2.24481189242926
  C   1.60543628995675      5.72567225690235     -0.95702874977813
  N   0.73138174008462      4.57446013927706     -1.03343459751107
  C   -0.57318929017424      4.53584298266334     -0.82511437373320
  N   -1.17006828024373      5.52804469348538     -0.12679667606802
  N   -1.31302159525514      3.58935567836160     -1.35868348750250
  C   -2.70132300317926      1.97349300304299      4.69500900565837
  C   -3.82712994485893      1.52710537768037      3.78394528143842
  O   -4.77270812199653      2.57368301169114      3.74919231291963
  C   -3.30727968786044      1.18728237876410      2.40711997543742
  S   -2.08014667851418     -0.03525500120724      2.31552995735684
  C   -3.80877370825417      1.74950428840210      1.29070134042729
  S   -3.19230706974668      1.34405401745566     -0.26762700141011
  C   -5.00358713408057      2.65639612369239      1.36373456596537
  C   -5.69591658316445      2.46574014347100      2.70136636919382
  C   1.47645794102181      2.50834385269173     -3.97208510949328
  C   2.16516647370123      1.71206556150695     -2.87250216673008
  O   3.22216929079556      2.52365725504192     -2.40629258552801
  C   1.23469823340597      1.34136199069371     -1.73203682528727
  S   -0.28691551121016      0.57264671983114     -2.11639851643103
  C   1.57308256384821      1.60618585403271     -0.45829965844902
  S   0.42447712812835      1.39944166575450      0.84309708920420
  C   2.95055396204122      2.05617413398951     -0.06501847148187
  C   3.86011218253064      1.96975641277674     -1.27602751237106
  W   -1.22966889854102     -0.17896865621240      0.13660821976568
  O   1.93427299820689     -4.51555725862889     -0.01484595296148
  C   -0.42089949925158     -1.77024974712253      1.11352695247201
  C   -0.18712819410198     -1.89720703259499     -0.14987590876995
  C   -5.46646417955301     -3.81860287656246     -1.07393677465139
  O   -6.48836978652282     -4.31187761827955     -0.63789795839874
  N   -4.44943218667237     -4.56721610545495     -1.54744265494123
  N   -6.51126224607138     -1.64836876485014     -0.73692079146312
  C   -7.52285918937243     -1.42759711396981     -1.62543819445925
  O   -7.38338481135099     -1.50431858475349     -2.82612810185523
  C   -4.54019300577540     -6.01508399912289     -1.60474699442613
  C   -8.87011402877138     -1.05946399317298     -1.01486099001347
  H   5.62713341986991      1.16238739059095      5.36114690423932
  H   2.83747599600314     -1.74117442656135      4.00316673785577
  H   2.77786409239120     -3.29871114289887      3.19650341621436
  H   4.68532378764948     -3.19021188070125      4.79360289391761
  H   5.41510484929060     -0.89637203310491      3.14503039623794
  H   8.13147790919174      0.33069497639189     -3.95328246571854
  H   9.06678746808440     -0.99921524461723     -3.28884978517043
  H   7.41342570274903      0.51065710817265     -0.31177971056021
  H   5.22438738729873     -0.66371593592181      0.32677274454764
  H   6.68552309095286     -2.26452533455621     -4.60158287014620
  H   4.68446779987759     -3.69603236355247     -4.69293490168052
  H   3.40630493257788     -2.30444289326726     -0.83138476491267
  H   3.05116942316663     -3.71722802613699     -2.83876351271024
  H   2.98278122688118      4.95933158417576     -2.44083969771533
  H   1.73841478723265      6.02760249086413     -3.09303052008495
  H   2.27772179317739      5.62196330975228     -0.10167409609018
  H   1.00317094509611      6.61995853615109     -0.79391723668275
  H   1.15637208326123      3.69182374084959     -1.30825793025042
  H   -2.16192453175727      5.45054253125736      0.02020030827893
  H   -0.66197053588122      5.93019654132833      0.64172135458647
  H   -2.14643656313809      3.24930329593748     -0.87978663423033
  H   -0.88034972782332      2.81847213334709     -1.87412066755911
  H   -3.76191942331552     -2.47457847276030      0.42135384788271
  H   -4.36315269830190     -0.84592275562342      0.13742325119323
  H   -2.17284040977352      2.82290774528583      4.26166221324368
  H   -1.98217097866700      1.17003116364315      4.84029766857676
  H   -4.29527149615009      0.62497581226346      4.21330946439763
  H   -5.68844033521382      2.42953974099867      0.54259710539270
  H   -6.20397213564558      1.48993573202254      2.71385854636588
  H   1.01400328107908      3.42028357127814     -3.59102659736009
  H   0.69736830715692      1.91310681643081     -4.44529445477707
  H   2.57156247252656      0.78536278717324     -3.30698318726351
  H   3.32591287689496      1.39479871892095      0.72043009701141
  H   4.12827216097429      0.92616278507556     -1.46471237120226
  H   2.01973282085988     -3.69467409960906      0.49747675870702
  H   -3.08938887544796      2.26434452535187      5.67224794975561
  H   -4.70376404814940      3.70317225596784      1.24046853346514
  H   -6.45632126338553      3.23219311520557      2.86627690032656
  H   2.20175172092581      2.79138034213528     -4.73502435630022
  H   3.08826036201619      6.70150491833923     -2.17633046686235
  H   4.78729680767272      2.52469910299036     -1.12368598056674
  H   2.93475771953407      3.06997155705332      0.35683920593158
  H   7.29441962148808      0.64908583458073      5.55986207760110
  H   6.59386747168546      0.77683561719964      3.93689784220621
  H   9.04099090446569      0.55337616631906     -2.46454781984401
  H   5.26052814745715     -3.39312683237573      3.14638442511598
  H   -5.14296333285678     -2.01905736017758     -2.19667138420929
  H   2.79422080387690     -4.60984253113593     -0.42767518180433
  H   -0.27571696914355     -2.23402738880207      2.07553613137449
  H   -9.48601517116726     -1.95794026506188     -0.95866523475057
  H   -8.79225820634055     -0.64045386102894     -0.01140336959740
  H   -9.37380713561409     -0.34495342053408     -1.66110118860096
  H   0.25197119483737     -2.53612238132062     -0.89735100592033
  H   -3.60123308594035     -4.10794823383787     -1.84498938812961
  H   -6.77963773079554     -1.78929379493745      0.22357339217984
  H   -5.39260383420158     -6.33099784031042     -2.20592837622574
  H   -3.63026092685099     -6.39934763708155     -2.05882216524487
  H   -4.64318632368960     -6.45342341067384     -0.61165431770947
