116
Coordinates from ORCA-job opt
  C   6.49746000190658      0.88007800133451      4.91444099926274
  C   6.11507891576804     -0.56789807369437      5.09769998091135
  O   6.45195609191197     -1.19982142168897      6.07990101595741
  N   5.38586905478844     -1.06694408669628      4.08250831723907
  C   4.85948299880706     -2.40341900117072      4.05469800210986
  C   3.36974377333298     -2.43360188944604      3.78993258284216
  C   3.05405204684181     -2.01037330688992      2.37804202619018
  O   3.79442143260421     -1.25791103053152      1.75546294949113
  O   1.97440077490258     -2.53656231803968      1.92432091152314
  C   -5.18722699612116     -2.44326201245169     -0.88955799900330
  C   -3.96573876069925     -1.78876164689073     -0.26652420124059
  S   -2.78231018960949     -1.36537156302082     -1.58364973748811
  C   8.50106800203133     -0.44970499889194     -2.99701900085186
  C   7.39238372983470     -0.90697136723394     -2.10607567227009
  C   7.18439285689131     -0.56561487894350     -0.79975962364827
  C   6.32355159702329     -1.79879570872911     -2.45253059453869
  N   6.07080905727062     -1.19466791211192     -0.31263253134413
  C   5.51838954145428     -1.94912120499153     -1.30498085106204
  C   5.95695856475247     -2.47417124810729     -3.62203651115229
  C   4.36976655589825     -2.73623310548203     -1.29364118626353
  C   4.81790796446758     -3.25365424411999     -3.61670198251453
  C   4.02852499551746     -3.38116899791417     -2.46122499775776
  C   2.46219095389788      5.59347684396362     -2.71887805645454
  C   1.99620358192523      5.43735710035106     -1.27937082108937
  N   1.08687965291547      4.31833608771711     -1.15644045840073
  C   -0.20688570385586      4.37141668407537     -0.85783870444717
  N   -0.66765338890093      5.39707757709214     -0.09980129033665
  N   -1.04540917594014      3.49472809937156     -1.34102086851297
  C   -2.60245300266714      2.30979100293854      4.55097900143829
  C   -3.74988055988889      1.83922186756355      3.68448739194252
  O   -4.69339112940623      2.88999508454573      3.64292555084461
  C   -3.25919052643604      1.44747487209058      2.31334229272053
  S   -2.02510671562937      0.22109013645573      2.25634357936362
  C   -3.78408229811759      1.97390390512647      1.19543636632443
  S   -3.20440037324891      1.49129457157624     -0.36286620813230
  C   -4.96681787177448      2.89724901137991      1.25856368958745
  C   -5.63510504931079      2.76049032095940      2.61415673698469
  C   1.54036805288834      2.10507015404182     -4.14692694861060
  C   2.23903188824027      1.30706700710188     -3.06471662759292
  O   3.37498694626990      2.05507390124726     -2.67590686125973
  C   1.32820436165044      1.04321359227544     -1.88574197052561
  S   -0.31064194989546      0.53169500461766     -2.24327988983823
  C   1.74647787519829      1.26243598854215     -0.62277515447584
  S   0.67560455972441      1.13840641844029      0.74769618408393
  C   3.17368357640889      1.63142997964484     -0.32051816260886
  C   4.02603387914646      1.48083540431986     -1.56692245336249
  W   -1.31686027262166     -0.14324954311780      0.01762950053083
  O   1.29013914545809     -1.98442329660994     -0.35063957759749
  C   -0.84043363344999     -1.79047984762822      0.88594357415560
  C   -0.15213545840244     -1.94287256640137     -0.32385979527515
  C   -5.32334652373038     -3.94987349738461     -0.55873547399580
  O   -6.21356139824470     -4.38558024981652      0.14176168179331
  N   -4.39892189763787     -4.74975892781954     -1.14095795299898
  N   -6.42045059117857     -1.76731007295094     -0.56077497484605
  C   -7.50473235471830     -1.85529460120139     -1.37081307224056
  O   -7.47750116985342     -2.38563853810308     -2.46213205634949
  C   -4.44316900396237     -6.19709099066477     -1.02849099886259
  C   -8.78467200175493     -1.21973399956951     -0.85068999648969
  H   6.12854713291891      1.45984410797638      5.75999907020409
  H   2.84607857949824     -1.77000889747529      4.48483012481761
  H   2.97366992886305     -3.43524964654668      3.96256414770189
  H   5.07662204344179     -2.85869152418664      5.01980314248507
  H   5.13040047893892     -0.48086594602767      3.30642110549571
  H   8.11936403403223      0.07130280770207     -3.87775011656536
  H   9.10327801757216     -1.28770754733795     -3.35488972746382
  H   7.76671653133158      0.08887152075779     -0.16954280244552
  H   5.63928974939275     -1.05829284894399      0.58714884647416
  H   6.55249773710224     -2.38060973203311     -4.52233547780519
  H   4.51997590581090     -3.77121634538741     -4.51944722162489
  H   3.75681613899573     -2.83231471657328     -0.41175303054168
  H   3.12911016138704     -3.98123520591213     -2.48865795942863
  H   2.98304374603383      4.69741357440084     -3.05448582488837
  H   1.61831146066737      5.77263711538143     -3.38452863590351
  H   2.85226303072036      5.28272805375781     -0.61889798204306
  H   1.49176315875358      6.34430599342799     -0.94652517562825
  H   1.41945332072637      3.41587134038655     -1.48476054363118
  H   -1.64404851797814      5.36257300970196      0.14254718735094
  H   -0.07359790189350      5.70240875820692      0.65238384941338
  H   -1.89329414715545      3.21732326439451     -0.83718239093903
  H   -0.71690533833004      2.69639496655740     -1.90208767907373
  H   -3.48301624984981     -2.43081935315194      0.47430137388610
  H   -4.27265164805804     -0.88013498193986      0.25600088654723
  H   -2.08366176069714      3.14290536344167      4.07548764683693
  H   -1.88158210316336      1.50882211609161      4.69911569929585
  H   -4.21092517353804      0.95441678966055      4.15632070780804
  H   -5.67293537664855      2.64735766075662      0.46203894558713
  H   -6.15404492857147      1.79126161533993      2.66814841241600
  H   1.12258624237000      3.03748985671758     -3.76319048530319
  H   0.72211352178311      1.53219232451788     -4.57689374464691
  H   2.56411689273575      0.34479763549861     -3.49334527224364
  H   3.54963682046579      0.97965497203477      0.47089514721613
  H   4.23481374104771      0.41973074889516     -1.75418625248306
  H   1.73170172007886     -2.22514802643365      0.95439005471144
  H   -2.96174681223976      2.63515364230228      5.52915685094043
  H   -4.66629983407303      3.93799376009290      1.08904077417457
  H   -6.38426414967997      3.54089688886649      2.76982782173984
  H   2.24289463257259      2.35241484981513     -4.94452460468714
  H   3.14989263946687      6.43546180376597     -2.80586900182890
  H   4.98880995179038      1.98472627648618     -1.45959760743250
  H   3.22652907809255      2.65417267961854      0.07525615266415
  H   7.58341040203126      0.97198725277168      4.91595341234521
  H   6.11495521489754      1.33067757965518      3.99936326437657
  H   9.17114766452717      0.23515322199875     -2.47707725267752
  H   5.38257942739892     -3.00245567620241      3.30258407419936
  H   -5.10320242120768     -2.37379829494384     -1.97680136912694
  H   1.62114093612445     -1.17293697356251     -0.75754200639030
  H   -0.85735170026882     -2.28483807247721      1.85014603494262
  H   -9.51466635231631     -2.00520313441022     -0.65610208709970
  H   -8.65362890602502     -0.63907599749978      0.06243312318417
  H   -9.19544171341994     -0.56955147127107     -1.62079849789302
  H   -0.54048037562897     -2.54582671998960     -1.14170866463870
  H   -3.64864518201211     -4.31522819269567     -1.65553464953923
  H   -6.55205274092425     -1.47819357740637      0.39319997824656
  H   -5.41448124167590     -6.58018831636665     -1.34044307878873
  H   -3.67770245643214     -6.61689501969353     -1.67681930879978
  H   -4.25657641283767     -6.53516596303791     -0.00795013440183
