116
Coordinates from ORCA-job opt
  C   6.34157399830025      0.76537799584064      4.94083999865464
  C   5.92638194502042     -0.67761866138367      5.07424054390888
  O   6.31526306171034     -1.37071839541967      5.99375025147491
  N   5.11238146907640     -1.10698097846880      4.09062781054496
  C   4.60470800542713     -2.44827599560102      4.01391100314674
  C   3.09772724491723     -2.49411698570453      3.81721814158589
  C   2.63817403136793     -1.96695194215415      2.47007724642761
  O   3.39841825830187     -1.39082413916064      1.71379961225568
  O   1.38424499697001     -2.22037153641064      2.26186249748545
  C   -5.37916794122536     -2.07803305669293     -1.04264700135068
  C   -4.34960465214722     -1.65555267434632      0.02551233142721
  S   -2.60443441602335     -2.00891684725988     -0.35165533931810
  C   8.39193699988722     -0.51597800024193     -2.96663100110770
  C   7.25249918551986     -0.94098158664879     -2.09528325819909
  C   7.02181266234614     -0.58408768940316     -0.79644672644740
  C   6.16445955540608     -1.80121636217426     -2.46342164224102
  N   5.86904837148348     -1.16511263923787     -0.33955817726688
  C   5.31672859594378     -1.90821987841247     -1.34181323082253
  C   5.81489037450663     -2.48306995508816     -3.63481187782804
  C   4.13173358954464     -2.64073780482158     -1.35967552253597
  C   4.65398940003509     -3.22869281897393     -3.65228819982143
  C   3.81775399675573     -3.30269795381975     -2.52477397138779
  C   2.55602104024630      5.72238500426470     -2.66604792794355
  C   2.20806068805216      5.48393791734614     -1.20309491967121
  N   1.27177216981420      4.38696057693862     -1.07192558827706
  C   0.03974353923551      4.44257247454426     -0.58167365844903
  N   -0.27808879771404      5.40982467138464      0.31015215735105
  N   -0.88848299005409      3.62603071479534     -1.01242102406266
  C   -2.70047000022615      2.50574300203010      4.49681100784928
  C   -3.71072374358004      1.74397095507396      3.64898873956126
  O   -4.85345444383484      2.56890112512325      3.53424111014965
  C   -3.15082986444866      1.36460596509307      2.30034389570378
  S   -1.61798665742444      0.51516126684842      2.26138599516146
  C   -3.76066110480214      1.70082166537459      1.15776286461532
  S   -2.97650474199166      1.35325812186572     -0.37963090336013
  C   -5.12060202514175      2.32815296501159      1.15079216232999
  C   -5.74203314881514      2.16292135319308      2.52781045072144
  C   1.53464294372076      2.28810994807188     -4.15621710395823
  C   2.25130046040233      1.43677843113602     -3.12466712487028
  O   3.42044486078950      2.15405636214046     -2.76994977478833
  C   1.41290319413517      1.13668039266335     -1.90014986608870
  S   -0.28347195841348      0.68196598201928     -2.10231519994465
  C   1.91727665600198      1.27701204946152     -0.66072862000888
  S   0.91219136724443      1.12520633881790      0.75541956005754
  C   3.36426417484791      1.60920248112416     -0.43271960019933
  C   4.13399879855596      1.51455394849612     -1.73644023904758
  W   -1.10839222442545     -0.04678114667366      0.03873010014043
  O   0.10988048833848     -1.72985522896470      0.08198081483796
  C   0.65947824332339     -3.87822946167099     -0.71747211877481
  C   0.38340140625213     -2.58385989074188     -0.89915413891330
  C   -5.66561226258868     -3.59975586571244     -1.03425777013283
  O   -6.77905539538239     -4.02958856007579     -0.79873491986657
  N   -4.61963548333787     -4.41138571218777     -1.29045342739065
  N   -6.61285893838681     -1.37893988190790     -0.74300355654132
  C   -7.60930458446825     -1.17491788032969     -1.64415173622654
  O   -7.47410610385484     -1.31128766470085     -2.83935887928127
  C   -4.75968600873443     -5.85236596258974     -1.22921799869579
  C   -8.93382203229020     -0.73479098932713     -1.02583999965961
  H   6.11162497736951      1.29466701453519      5.86466636497108
  H   2.59420487482499     -1.92597608421178      4.60498274262020
  H   2.74466189895223     -3.52283307314909      3.92242124386453
  H   4.86740081654609     -2.95097951928406      4.94266806981278
  H   4.83987778950661     -0.48075401234828      3.35284165404547
  H   8.04095800838847      0.02082674527372     -3.85061185113045
  H   8.97190564673559     -1.37179759284426     -3.31895192770472
  H   7.61067399628837      0.05185376483352     -0.15342925120746
  H   5.44401793342736     -1.04718523023291      0.56475630736454
  H   6.44216351753507     -2.42288223270497     -4.51630806119491
  H   4.37267015947072     -3.75811751995194     -4.55372775057891
  H   3.46445490095556     -2.67068247739994     -0.51051258537351
  H   2.89911701650798     -3.87049171677945     -2.57001992913974
  H   3.01940968163498      4.83694249348539     -3.09958111636142
  H   1.66540979582565      5.96741755270879     -3.24382135451331
  H   3.11179011301124      5.26163511201005     -0.63142355160185
  H   1.76423975800930      6.38153331064686     -0.77263202703978
  H   1.54541518398929      3.49381072539670     -1.47471000895399
  H   -1.21532191083975      5.39145796366288      0.67640759950314
  H   0.42345985970512      5.64735862781610      0.99055389967069
  H   -1.66448643003926      3.32173303410978     -0.42720615763454
  H   -0.65573901139914      2.88434783008971     -1.68010049476594
  H   -4.58743023793493     -2.14432618185648      0.97574918558545
  H   -4.46655079800865     -0.58629722075604      0.17519967811356
  H   -2.37523576838792      3.40918450997809      3.97956255447558
  H   -1.82285898020647      1.89165062182368      4.68677899244325
  H   -3.98225136108360      0.81738913562367      4.18349135279224
  H   -5.75000391190170      1.84339216745109      0.39767263552323
  H   -6.04126787409357      1.11260058670930      2.66502165059275
  H   1.17488098834330      3.22830063570535     -3.73405363925886
  H   0.66991499571775      1.76005676341815     -4.55414431976307
  H   2.54132365184569      0.48473540953667     -3.59925752167218
  H   3.77274770287968      0.90706834886191      0.29640300804118
  H   4.30975932140037      0.46282987025985     -1.99181893391720
  H   0.63609501440113     -4.34496249665121      0.25786254608291
  H   -3.14271301251827      2.79007261126546      5.45274027370276
  H   -5.07025433519360      3.38724999700814      0.87376507697405
  H   -6.64051353388282      2.77559019186254      2.63475737108347
  H   2.20625116285401      2.52131943012724     -4.98326587040254
  H   3.26039297156769      6.54992947507806     -2.75543623589623
  H   5.10961266785553      2.00013755370414     -1.66712220326864
  H   3.46065289055966      2.60673962116797      0.01600646763030
  H   7.42171009829032      0.81920755291130      4.80384333448799
  H   5.86439949166315      1.29359971187357      4.11596925043488
  H   9.07546889929764      0.14417420209609     -2.43236307255851
  H   5.09940411404097     -2.99573190735397      3.20590354121651
  H   -5.03011378447754     -1.76361599983865     -2.02752807896556
  H   0.97759934450920     -1.92320551999880      1.38063798923222
  H   0.88419736469013     -4.50257776017121     -1.57000075821339
  H   -9.53589240117455     -1.62064218431696     -0.81804050004006
  H   -8.80804387002394     -0.18579983845273     -0.09226641882612
  H   -9.47695729599730     -0.11280100115572     -1.73288552092214
  H   0.38430033111959     -2.16241925678078     -1.90594666890763
  H   -3.69153820712498     -4.00833915029867     -1.32237836690217
  H   -6.89154124296395     -1.42049403208411      0.22391223383828
  H   -5.52016039621154     -6.19981228126669     -1.92778773888708
  H   -3.80699004397491     -6.30114013297440     -1.50040450385805
  H   -5.03491099315657     -6.19845834226330     -0.23093568657751
