81
Coordinates from ORCA-job opt-constrained
  C   42.17716799762627     36.55095200443267     28.76729000816004
  H   42.01065845417644     35.52771357438206     28.44382607399391
  H   43.25412493239436     36.72100985176044     28.75167724624505
  N   41.64247811423616     36.70796895194557     30.09580432587464
  H   40.99607765226308     36.01278460087200     30.42287632826174
  C   41.77443311726951     37.82178458830875     30.83121979189090
  N   42.45389086031759     38.85522397695275     30.35986397722296
  H   42.56739829380480     39.72068067743850     30.92601921087942
  H   42.71372951868238     38.89834473588135     29.39135145803749
  N   41.25780757951301     37.87936998572405     32.04605589088825
  H   41.08714521832486     38.83144446836896     32.47032093900260
  H   40.78134384095270     37.08165874120203     32.42600847989240
  N   36.56247125282373     42.43477798026414     34.81065664551419
  H   35.75192048175996     42.31301827228550     34.22813682312132
  C   36.87908196423390     41.69413296683319     35.91523900554370
  C   37.52613475342578     43.34813069737519     34.62254930093706
  H   37.54412096904350     44.05770786279070     33.81151398932715
  N   38.44459574235449     43.23628552711201     35.55368899478816
  C   38.05428132837598     42.20865429306925     36.36803190148504
  H   38.63743164427185     41.90203575844881     37.22053501319673
  N   41.35594297570183     43.81940318948986     39.60516559268486
  H   41.32666586514109     44.12801163263356     40.56189897687145
  C   41.91566008546531     42.65730502126356     39.14972298607795
  C   40.85437122934313     44.48105540339991     38.55145934758846
  H   40.35757162827805     45.43366391665499     38.62964121442845
  N   41.05799749605618     43.80981297158900     37.44339119319511
  C   41.72800400448018     42.67162351756681     37.80272177230714
  H   42.05573371480710     41.94259128546108     37.08235861421676
  C   45.41429193809508     44.28482096768921     37.58900310662368
  H   45.19682702795038     43.52405084975198     38.33690148482994
  H   44.88371828813688     45.19853475642681     37.84692405507572
  S   44.76925065551983     43.82235077161296     35.95100371830035
  N   38.72172530839797     48.21974060704601     36.42207952728218
  H   38.70058811505316     49.21479965250735     36.27778410680074
  C   37.82163894439402     47.49103204148984     37.14796002907740
  C   39.62532198589697     47.37156676051403     35.90749788110735
  H   40.45134474460122     47.66933593535713     35.28295802851538
  N   39.35330551251820     46.14515608191557     36.27451096349081
  C   38.22761221939119     46.20047274541193     37.04534192087071
  H   37.77091640302102     45.31691367264595     37.45900097615515
  N   45.01871973696714     45.25524898611162     32.36362548566917
  H   45.30437648773708     44.95193122187574     33.28091571812232
  C   45.31199108394664     44.64861998717100     31.17441188019695
  C   44.15880296564944     46.26336399110125     32.09973607653109
  H   43.76030659327464     46.89659885476330     32.87635851441862
  N   43.88989040135615     46.34815765635707     30.82556855583251
  C   44.60520815520007     45.34796630021759     30.23771936575991
  H   44.58031113397918     45.18663901199948     29.17176506749892
  C   47.14816998221587     40.47825601121138     35.65440798833040
  C   46.60056398781440     41.65833974465893     36.15815367425024
  H   46.97733255618027     42.05984146108334     37.09019741043620
  C   45.58806279116757     42.31849177208876     35.47604672519029
  C   45.13827653248198     41.77067934285251     34.26203683050109
  O   44.18296893851488     42.45088911514544     33.61005961995188
  H   43.80704596020048     41.95800311665354     32.84661120588574
  C   46.68392039830448     39.94331527869959     34.46917391689338
  H   47.10589583722063     39.02687276790269     34.07974472125942
  C   45.67622206962684     40.59076355035430     33.77255272468144
  H   45.30214137364136     40.18362861357951     32.84041916037769
  N   41.25361560405400     42.65471547352280     34.48276913236678
  H   40.91039494569605     41.77296204487854     34.85424976139899
  C   41.01232866317815     42.63398980407062     33.02734697549121
  H   39.92993621011878     42.66116056483720     32.88794243522314
  C   41.60739612970962     43.84242068801513     32.33052840179918
  H   42.69210203475088     43.90258007177556     32.38323407235477
  H   41.33975825420339     43.82955154052249     31.27239055446730
  S   40.97081302654009     45.42760437012281     32.99742863152007
  C   41.47608817966437     41.26936636115834     32.49372507968621
  O   42.54664996339439     41.17845619603711     31.83926404176021
  O   40.74149106460082     40.32109168239245     32.83064615787700
  H   42.25955422264189     42.67687269294360     34.64459577053519
  Fe  40.31778811901111     44.40786021441797     35.45369693673720
  O   41.69255628485365     45.51708153083756     34.37955205266274
  O   39.53181152046652     45.06864924689821     33.37853820042064
  H   41.69831253240260     37.20991167465699     28.03894202425581
  H   36.26119562467313     40.89128787318143     36.27644923235690
  H   42.39299374223367     41.94539010893432     39.79960352813936
  H   46.48229266790960     44.49275768909247     37.56663000332772
  H   36.98690663996774     47.94123326043837     37.65592290110595
  H   45.98087590555381     43.80891332434382     31.10282390293257
  H   47.93998015312971     39.98786670032192     36.20385436792064
