82
Coordinates from ORCA-job opt
  C   5.34036202732689     -0.19754803146312      3.41075301854271
  C   4.17302345109512     -0.71387030104473      2.64464308628479
  N   2.96438890920898     -1.03875543162042      3.21332222364411
  C   3.99222372955318     -0.92795835561592      1.31247929076308
  C   2.11809219308315     -1.41208396408198      2.23641805797983
  N   2.71578754835487     -1.35921015317985      1.07621116148572
  C   -0.86503900587726     -4.91997399240513     -0.23062299681485
  C   -0.73569973763364     -3.41862488941595     -0.35736565912524
  O   0.39944555394607     -2.92482061997012     -0.24270667374067
  O   -1.80387778668676     -2.77390004928032     -0.53184723470112
  C   2.78340346483299      2.51574137772834      0.88091506286211
  O   2.12849999509615      1.50995197764962      1.39930436382611
  O   2.46249594882675      3.08178938124723     -0.14659816468109
  C   -0.72788700541008      0.65273699794246      3.57654399874353
  C   -1.39626993304863      0.36292224487265      2.26018924450731
  O   -1.88857790376489      1.29306468333588      1.60075358812953
  O   -1.38049646265997     -0.84528952589107      1.88206252815272
  C   5.06698800403784     -2.15692099897352     -2.89862699819667
  C   3.85312367137826     -1.71441207740063     -2.11076425836924
  O   3.00355559924856     -2.60225480409351     -1.81723732303082
  O   3.72968014497146     -0.52556995264111     -1.76814902568014
  C   -7.42998199936777     -2.24936200156464      0.55858099905562
  C   -6.13522890791683     -1.52126524525288      0.49131907211903
  N   -5.96726167228767     -0.24528182713107      0.97363354285885
  C   -4.90615991196317     -1.87290165301636      0.01850416061887
  C   -4.68713643265178      0.11981554033319      0.79081029363364
  N   -4.02329532100455     -0.84490932951605      0.21020578716817
  Zn  -1.93099485394393     -0.87869105613488     -0.00705965034737
  Zn  1.67601214316046     -1.43154650400705     -0.78991118755945
  C   0.66381457503703      0.77807209476920     -2.54803648081673
  C   -0.00213480882537      1.40001085954649     -3.76752993259990
  N   0.88896674160169     -0.65944375296381     -2.74521396978222
  O   -1.34838568270101      0.29073217739870     -1.40003339082274
  O   0.58959346490023      0.25411816438708     -0.22705702753833
  H   -7.76844475687021     -2.38566800150322      1.58722751690807
  H   -8.22119937584904     -1.73377144114902      0.01135854623995
  H   -4.59792470208770     -2.80041632673105     -0.43412820722179
  H   -6.67707522856716      0.31790092512558      1.40880566147424
  H   -4.26856726425649      1.05967668624840      1.11142696628452
  H   6.17617845486319     -0.03089424477951      2.73417521746019
  H   5.11893291735654      0.75302791844441      3.90019083469442
  H   5.67791356173323     -0.89677476261537      4.17831853704864
  H   4.68954099441561     -0.76501991742211      0.50869488349400
  H   1.08709846962062     -1.68545066058808      2.40054736681977
  H   -1.78019034068603     -5.28706311152572     -0.68935603073387
  H   -0.89401176772628     -5.18127237350827      0.82923265504762
  H   0.30831572117801      0.93878396138224      3.38048583115916
  H   -0.72426807117955     -0.21661773898642      4.23176657780432
  H   5.63595369311088     -1.30995543035211     -3.27488276106911
  H   5.71914808110003     -2.75264993843380     -2.25700067703830
  H   0.02125620727276      2.48895557067077     -3.75588368348183
  H   -1.03913902990125      1.07640357999617     -3.86263753173099
  H   1.55950010219778     -0.81653155442157     -3.48703508810348
  H   0.01627829326090     -1.09985455347044     -3.02058390784009
  H   -0.00363401042290     -5.42357324394650     -0.66432348047736
  H   4.77758307649088     -2.80024853523481     -3.72913401881835
  H   -7.32080137047283     -3.23795942346380      0.11815163893198
  H   -1.19933409325747      1.49156921273355      4.08550655269101
  H   0.64075338034009      2.70848753594811     -0.52074385407225
  H   1.48106704783876      1.07021924265286      0.73896414190520
  H   1.64302846585061      1.23458668910816     -2.38212692918753
  C   -0.14269657927699      0.79690276975065     -1.22184073547613
  H   0.52889957762886      1.10252921623083     -4.67398479195019
  C   4.00277297688125      2.90253702213483      1.68224798145043
  H   3.79023003430171      2.89220567010953      2.75031514925974
  H   4.36250416637371      3.88426274971950      1.38767079372621
  H   4.79023803947055      2.17030310334292      1.49718865673090
  N   -0.31148426751538      2.34137047371935     -0.68087165085471
  H   -0.72706365917728      2.17987678736914      0.24977168870736
  C   -1.10968451760645      3.37467173211993     -1.35657065209265
  H   -0.67548705124201      3.55461176898471     -2.34092298630652
  C   -2.57884213823141      2.99453187026808     -1.52054564111630
  C   -1.00789522575421      4.68522073774471     -0.57710419014142
  H   -3.03742590225330      2.81239572406154     -0.54918696885729
  H   -3.12033069407705      3.80082006538596     -2.01429968025204
  H   -2.68265285356393      2.09171319914588     -2.11248449240487
  O   -0.50603828634611      4.74239229887693      0.51303653892474
  C   -1.60579233519332      5.89663140862297     -1.25111026387873
  H   -2.64583529835159      6.01307416897102     -0.93965148927280
  H   -1.06984414155856      6.79294688024518     -0.94584050888205
  H   -1.59684031295973      5.82153522877754     -2.33803486762987
  H   2.73259473342570     -0.97514388275971      4.18883573841688
