116
Coordinates from ORCA-job opt
  C   -1.10578601582614     -4.92737888570246     -0.24597308998945
  S   -1.43594429129817     -3.22270964782939     -0.75276313627871
  N   -1.43409646053199     -3.48974753788459     -4.09591968324701
  C   -0.03561526083663     -3.09090765455029     -4.05600247009867
  C   0.13709683558488     -1.58430660154652     -3.99055955271949
  S   -0.40717972569600     -0.82786839288112     -2.46390242269682
  C   0.81941211788676     -3.90537313457297     -3.06853695633882
  O   1.00220014498616     -5.07594539522333     -3.36526931780413
  O   0.12746187742081      0.58228826335644     -2.56278931311328
  O   -1.90809506743992     -0.80978009896551     -2.48561958433079
  N   1.38112330815533     -3.29772806883875     -1.98899779197376
  C   2.30328520247862     -4.16464664661633     -1.25016776514486
  C   2.31848536361890     -3.79291462686356      0.21784730976348
  O   3.18001264709931     -4.20436968577437      0.99988754142131
  C   3.68718654576404     -4.15706026319048     -1.89465720937251
  O   4.11377999748063     -2.83616146026120     -2.20016435115939
  N   1.26972659712523     -3.06817625596924      0.57917641683210
  C   1.11948023603858     -2.74537263864620      1.97916586631826
  C   -0.26077879716422     -2.13489265629785      2.16036771618991
  S   -0.55141185164468     -0.89911804744436      0.86460932709292
  C   1.26582378688259     -3.98241737143839      2.87581089254629
  O   0.47387326544884     -4.88149692983262      2.87461865766729
  O   0.31053877265785      0.37415988229391      1.42910438010544
  C   -5.71499999536995      6.65199996452140      1.01899998479798
  C   -4.43956130334375      6.10058259048227      0.39279308229141
  C   -3.92467265230304      7.01800038542315     -0.70981099714932
  C   -3.36801780625092      5.87017363779697      1.45377912665297
  C   -3.98000002161224      1.71000002498333     -2.26399999789324
  N   -2.59089547663529      2.02684763848936     -2.02055827174851
  C   -2.10699971298540      2.30900338199644     -0.81552798598958
  N   -2.94283022555105      2.67307636901776      0.16676750047970
  N   -0.80632116229256      2.23444641315710     -0.60275349643649
  C   9.95299999775072      1.79499999836252     -2.33699999660912
  C   8.83258213007922      0.90273503954234     -1.88136886699421
  C   7.94920867597389      0.32002715706799     -2.78413549040781
  C   8.66765368764798      0.58953549963770     -0.53431504730806
  C   6.93944525017501     -0.53776295611589     -2.37280339728096
  C   7.66636014466401     -0.26301961382149     -0.10308907299040
  C   6.79004850012352     -0.83105047348765     -1.02291727679421
  O   5.80660408407704     -1.62531942175904     -0.54974797502473
  C   -7.09699998082809     -1.66099998987546     -3.34499999046893
  N   -6.38206509357432     -2.01953978356551     -2.13913926932669
  C   -5.04756438278106     -2.02055861116814     -2.02098174774544
  N   -4.27578267922453     -1.89418194367624     -3.08262332316642
  N   -4.50306493548358     -2.10268006172935     -0.81339222139616
  Co  0.48811437232292     -2.06181532230382     -0.79761335431594
  O   2.84004650884435      0.22265077441743      1.97463912289431
  O   4.47722013561649     -1.78363183727738      1.86807254318493
  H   4.41801070769742     -4.59907076846887     -1.21776461461341
  H   3.66175079665246     -4.75751752697542     -2.80721044644416
  H   3.33126585863290     -2.38260872989693     -2.53795607257849
  H   1.96605103195962     -5.20925542892244     -1.27118468685398
  H   -5.52993912206257      7.62370348383688      1.48073625856224
  H   -6.10475626602225      5.99069886531052      1.79437709371830
  H   -4.68687843427855      5.13312233181279     -0.06869028471650
  H   -3.66534252245251      7.99912542410675     -0.30745147103866
  H   -3.03074300402190      6.61367445232148     -1.18766928532335
  H   -4.67541519935903      7.17177187033178     -1.48571819016561
  H   -3.11864540095927      6.80431972130050      1.96012220114672
  H   -2.44126031681169      5.49158601814516      1.01582147805052
  H   -3.70280320152290      5.17108457878761      2.22421986608487
  H   -4.35620729021475      0.96365128889030     -1.56266540874427
  H   -4.05755750208887      1.30171503646994     -3.26599846007006
  H   -1.92415967098119      1.60312652505533     -2.65172160184883
  H   -0.43950676490270      2.27206257607814      0.33473944984410
  H   -0.25192432295052      1.68638237358301     -1.27834007029021
  H   -2.56186291689765      3.02551550558702      1.02797403514898
  H   -3.85903857475644      3.02131212516725     -0.05747480713428
  H   10.87977049961119      1.23232272979537     -2.46376283135887
  H   9.72979062556081      2.26579618590738     -3.29427901319316
  H   8.04936987440389      0.53473925818360     -3.84164338707659
  H   9.34369870469372      1.01441804100555      0.19868435101465
  H   6.27140076926908     -0.97613665523691     -3.10457922371968
  H   7.56439399366548     -0.49838112441960      0.94946200236168
  H   5.24727299400798     -2.03647105180094     -1.24857702164101
  H   -6.68287972125810     -0.75269866307149     -3.78094302105723
  H   -7.08615864726207     -2.45403097549466     -4.09536617183967
  H   -6.91802057326340     -2.38249492596213     -1.36994512910889
  H   -4.61710308417135     -2.10815490639974     -4.00302525307016
  H   -3.27167314708169     -1.67093567801740     -2.97900384930263
  H   -5.06912780194194     -2.04794745281721      0.01399824665653
  H   -3.51752020159325     -2.35989762373561     -0.69833111366829
  H   -0.69145057368563     -4.99126064123899      0.75490015128222
  H   -0.43453115289121     -5.41285421621839     -0.95100519129809
  H   -1.77339655019503     -3.58268248226296     -3.14340212640015
  H   -1.48172695979067     -4.41585112524356     -4.50042927513700
  H   0.38487551446687     -3.35909903023119     -5.02991777921482
  H   1.19006360203458     -1.31762877591265     -4.09260836269474
  H   -0.42671514527360     -1.09436477877146     -4.78736337535541
  H   1.86848991634360     -2.02310057155694      2.31602437697048
  H   -0.38938171998199     -1.63572296544782      3.12162493908663
  H   -1.04389149815559     -2.88304144643063      2.04625849990597
  H   2.11918847123388     -3.96265646162544      3.57318259450101
  H   3.02213578152068      0.62821898728300      2.82575336755269
  H   3.43813498305682     -0.58353583185569      1.91856454251118
  H   4.10362602044589     -2.67760085775503      1.79309224847582
  H   5.05567746256441     -1.70498442991471      1.08939616343713
  H   -4.61080070915311      2.59982191391260     -2.22373291787332
  H   -8.13326341263027     -1.46215226020880     -3.08798526705505
  H   10.15545788895624      2.58856019506892     -1.61762123663192
  H   -2.05755022384879     -5.45700940938235     -0.26688637309028
  H   -6.49941502961032      6.78844728796938      0.27382010855520
  H   1.29462958941433      0.20671861099539      1.57791218194814
  C   5.58610352197390      2.39491019733365     -1.01953384434281
  C   4.68206787575537      1.45158692763776     -0.56880032761882
  C   3.69632351587565      0.98901775563837     -1.43860297702583
  C   3.60172979980695      1.47790865138284     -2.74504711361917
  C   4.51591562198832      2.41801593110482     -3.17930476838368
  C   5.51014260310186      2.86923549939274     -2.32026792488192
  H   6.36981281548249      2.73957150419353     -0.36080372795081
  H   4.73736974641157      1.07335414226387      0.44013105853265
  H   2.81153829146300      1.12979064934478     -3.39659472388530
  H   4.45591296259526      2.79808389759628     -4.18969403429495
  H   6.23344774152669      3.59376870210897     -2.66870376573048
  C   2.77323718700217     -0.01855230716478     -1.05365502346900
  N   1.99496508208939     -0.83737570234865     -0.85660752036235
