81
Coordinates from ORCA-job opt-constrained
  C   42.21638499698972     36.57123200148538     28.80358300302781
  H   42.14531712171536     35.52866318922037     28.50876231461681
  H   43.24329425099152     36.88854921335087     28.62085990300944
  N   41.87857671886030     36.67701817450213     30.20414917540213
  H   41.38094455714543     35.90795294155127     30.61578195821200
  C   41.99318923080267     37.79145493020865     30.94362646786378
  N   42.44974021844764     38.91250451490117     30.40713896828759
  H   42.56882897009299     39.76364707526223     30.98657763224715
  H   42.54967423246439     39.00756992592184     29.41290748093561
  N   41.67613418467411     37.76679075649552     32.22629361725717
  H   41.49785317007890     38.67057295242376     32.73813856300682
  H   41.41540351348659     36.90233471924964     32.66498287291455
  N   36.51353162203934     42.64541796472738     34.88407220981130
  H   35.62787505268702     42.60953031195206     34.40892175491335
  C   36.93277397782256     41.80265998837999     35.87349800501958
  C   37.49927724484352     43.52569797499746     34.64299637377894
  H   37.43361527889837     44.31395933097572     33.91022466865644
  N   38.52237309681550     43.29474452751843     35.43066439655043
  C   38.18593738167137     42.21439047490706     36.19820350101806
  H   38.85682325531345     41.79214869486688     36.92592688382116
  N   40.52080224208478     43.31438523984770     39.45715159543930
  H   40.15791878858311     43.27680492826748     40.39381369916762
  C   41.71099301870328     42.79411699390059     39.03004703614893
  C   39.92912456348527     43.91079848078098     38.40919392964215
  H   38.97455800114807     44.40674470559763     38.46796122022807
  N   40.67348231822251     43.79430364081558     37.33607458945531
  C   41.79725630741236     43.10849241618644     37.71172198697361
  H   42.61884876252267     42.92733933991065     37.03846141722907
  C   45.48489798890946     44.22566298655720     37.81917299020522
  H   45.23520238171174     43.39561063214327     38.47858221243014
  H   44.93963699877977     45.11003159500369     38.14102586192287
  S   44.92311881037374     43.93170234135019     36.11359022572947
  N   39.06039305183586     48.01187531718193     36.92164495483024
  H   39.28865985704863     48.95926304383095     37.16938836066460
  C   37.84463698480020     47.40749801088358     37.07581400071545
  C   39.90517796821688     47.13007455318063     36.36373692663229
  H   40.94201090010197     47.32564560910527     36.14637662257742
  N   39.29151564556916     45.99062566125350     36.14606364454335
  C   38.00440173907369     46.15064792994597     36.58701633534815
  H   37.26888511496863     45.36712440867475     36.53605382146021
  N   44.50469169700855     45.27417067650304     31.98052546179987
  H   44.54353925970558     45.20386752332045     32.98469697991835
  C   45.23591405161797     44.54103099925454     31.08812296606883
  C   43.68794297026984     46.07945432341788     31.26364839212368
  H   43.00560212483759     46.77046141506591     31.73207499927923
  N   43.84702575438386     45.90973258263141     29.98045770232158
  C   44.81173450942808     44.95465198094330     29.85818683564324
  H   45.15515687844594     44.61855877435679     28.89272213944018
  C   47.14418997890058     40.49558401757073     35.71162899724400
  C   46.65302970609936     41.68793758975535     36.24289711464361
  H   47.05978269695351     42.05807032573782     37.17534279519136
  C   45.65917356869345     42.40593634247154     35.59015071364922
  C   45.16860389437086     41.90616915345625     34.37158565328109
  O   44.22572927271700     42.63639213729947     33.74216304203804
  H   43.85588320722835     42.16797749212648     32.96874324936822
  C   46.63945417325953     40.00956882096663     34.52087789927940
  H   47.01436339455351     39.08471686806167     34.10409047231158
  C   45.65051793043141     40.71494223094973     33.85215498973908
  H   45.24508357116058     40.33998827208221     32.91955110077220
  N   41.23258265340898     42.69754167233877     34.71235511389423
  H   41.07046080151586     41.83633358526290     35.23029272325952
  C   40.87931631970392     42.44242525569410     33.30804677886605
  H   39.80366567664767     42.24847576770059     33.28389638509289
  C   41.16898611546067     43.68175514535673     32.48538588335103
  H   42.23258036367903     43.89741634634101     32.38248668581423
  H   40.77044706089078     43.58945738509723     31.47497408196718
  S   40.41339927535569     45.15786919923592     33.25110041221232
  C   41.54313421594463     41.14355099124715     32.80957374677407
  O   42.50385287900271     41.21322888463157     32.00575451966945
  O   41.05158519081850     40.10585713116566     33.29087631611482
  H   42.23768480011206     42.87710637934584     34.76132563277876
  Fe  40.24362147644865     44.35172130119651     35.45678711114232
  O   41.86031631311020     45.37081238860924     35.27244271571273
  O   41.68202369697071     45.93446319945943     33.95711096917010
  H   41.54288173926597     37.14570092363918     28.16361620742411
  H   36.32741943464739     40.99426835994670     36.24374162758482
  H   42.38636495039241     42.27340829932009     39.68558294883203
  H   46.55221798914754     44.43159801294056     37.87213774458586
  H   36.99196774391344     47.90896488525183     37.49845382790626
  H   45.97689397378426     43.82488116748432     31.39802803264583
  H   47.92170189762646     39.96026036864066     36.23892008329477
