89
Coordinates from ORCA-job opt
  H   99.29232799859609    151.21301000023479    146.93883200383621
  C   98.27330473398247    151.08523157503794    146.52268101324555
  O   97.66909776976986    152.02152149356075    146.04202507941622
  N   97.83249415336191    149.82537156217526    146.61980483911401
  H   96.91812975957035    149.57675926051829    146.27948354820188
  H   98.35694593246845    149.06741167441567    147.02942728546071
  H   103.15251502206441    141.12083898326921    144.27821801629904
  C   102.75429750566369    141.98651872970424    143.68538578650427
  O   103.46665637710238    142.89345210659258    143.30705820077546
  N   101.43458924016583    141.85729165056139    143.46423603310453
  H   100.98981496914136    141.09343109490925    143.96761237193678
  C   100.54683757603152    142.89056719330711    142.98272812245216
  H   100.30013563868870    143.60455557333026    143.77713346067276
  H   100.98014597416737    143.49465601676786    142.17256197810460
  C   99.27087366858613    142.28177037231259    142.40631236320937
  O   99.23250943149874    141.17996712754410    141.89837796793790
  N   98.21623307445695    143.13493266170778    142.42178044824183
  H   98.22620304310810    143.86581214907957    143.12730250113353
  C   96.96560474232199    142.81246674209794    141.77839886765946
  H   96.47167006687133    143.76114454994203    141.54518299730438
  H   97.17649500801909    142.33102800595606    140.80217300422390
  C   95.93793525140330    142.00371567287229    142.61668955393816
  O   95.17660148875295    141.21961515324762    142.08897292737072
  N   95.90191988467102    142.32555281081974    143.93510675896439
  H   96.56336353679579    143.00784017983199    144.31878591106172
  C   94.99358521006496    141.79338535864852    144.93220905849319
  H   94.98195562158821    142.54261770516479    145.73112336373433
  H   93.93848098966930    141.70373801101852    144.60642502785075
  C   95.44833072074229    140.47859189928766    145.59579739844111
  O   94.68616517229837    139.79222094385074    146.25513413143531
  N   96.76650649045322    140.21529627227071    145.46100894697983
  H   97.25289427853015    140.81466719134343    144.81163358443266
  C   97.41440779673141    138.95657613537833    145.75952985119591
  H   96.83008338285011    138.14316057323001    145.31400231547505
  C   98.80440389628892    138.93474285091796    145.11498813708590
  H   98.70741614434820    139.18943153746829    144.05607684095389
  H   99.16840173087958    137.90909839974131    145.16265302493724
  S   100.07055352325801    139.98543624622110    145.91082432584901
  C   97.57158943640584    138.55319082733041    147.22882828128391
  O   97.81586252650099    137.38767116960548    147.49084413488964
  N   97.42792788331100    139.50213087942078    148.16845406654616
  H   97.27151069772648    140.44907619152892    147.86751044784430
  C   97.51585897682428    139.25456790719545    149.58978979377480
  H   97.30107654660742    140.20388902590804    150.07413027721856
  C   96.51116183193297    138.20698631418793    150.05575833313304
  H   96.82801006454939    137.20785350458786    149.75581742622435
  H   96.45248039523997    138.22814451127999    151.14616093977915
  O   95.20108495356698    138.46279861187472    149.57552718681785
  H   95.23095839386465    138.53480065448667    148.60989079242586
  H   98.51512295000842    138.95997605596381    149.93363903530957
  H   98.01357400453391    146.28821297990544    151.18305001178945
  C   97.80479077038497    145.62903289099555    152.03980743763009
  O   97.58100080743760    146.03526268356416    153.16161495287696
  N   97.85962560173323    144.33662693441457    151.67439975257011
  H   97.95359527040505    144.13729450154423    150.68929943177659
  C   97.49067757609237    143.26751647542591    152.55783575981127
  H   97.97908205339310    142.34711910395046    152.24048466863380
  H   97.80692200062801    143.50318000305012    153.57193301635590
  H   96.41030548781227    143.09293743923587    152.57363528834767
  H   92.27508513454399    143.89740754674693    151.95018616488002
  C   92.59964724450144    143.29866776549363    152.80950467264509
  H   93.67733811229651    143.46435746232007    152.93171124679469
  H   92.10425204802439    143.70652297155431    153.69346093122715
  O   92.25031356524626    141.94415879698403    152.70609355708498
  H   92.71388007604105    141.56279881914671    151.95545251947138
  H   93.58710479004495    143.22458952641503    148.27400615737039
  C   93.49464508294297    142.81281191574485    149.27783666145652
  H   93.69257166432646    143.64824805677816    149.94912047061197
  H   92.50009099195155    142.40884397965800    149.43670201015672
  C   94.50233707701706    141.73746019639279    149.49827181835718
  O   93.97094560670695    140.67201018906579    150.06397726491204
  O   95.68022324045599    141.82416877593030    149.21494329186694
  H   93.21136407628265    146.09094397479689    148.92048798014514
  C   94.06969794458124    145.96059778102671    148.25965665416976
  S   95.55520318188559    145.57869892226933    149.11353119569816
  C   94.03668229126902    146.00556585149559    146.92237609201447
  S   95.45754882811777    145.67437708965389    145.93629717247200
  H   93.14511593011456    146.18760102846193    146.32808398200461
  Cu  99.22151517222487    142.01634772853191    146.02757156371143
  S   98.22099706074799    143.91978689243896    145.74191921457034
  Mo  97.24899539529260    145.40818519029540    147.43458716845902
  O   100.13591670780683    141.28818437502608    149.32372619815013
  O   98.16495520906399    146.79734288734474    147.52656154963364
  C   101.08234011709372    141.35983516611617    148.66022206394942
  O   102.06599227346362    141.45582205743034    148.06356039672687
  H   94.55064352327098    139.85874930150186    149.99309418029247
  O   97.75747340978114    143.65296032423515    148.70176283338293
  H   98.27743426956349    143.08267928374556    148.10537186300073
  H   96.92778095307138    143.16648709537066    148.89242487726611
