101
Coordinates from ORCA-job opt
  C   -1.12944802100047      5.58082597954865     -2.31925795142251
  C   -1.38264336539842      5.40695281087311     -0.82278027843219
  O   -1.18317260992292      6.32822585188224     -0.05495744281166
  N   -1.84576253620596      4.19532708795010     -0.44685910772040
  C   -2.31127596322339      3.86913705166836      0.89353193519809
  C   -1.45738348624496      2.84879125986502      1.63397818508205
  C   -1.08659978210844      1.63550109439372      0.78750068570906
  C   -2.27900942573704      1.08133302672489     -0.00356786377186
  O   -3.25379724301195      0.68623158527966      0.64212117219813
  O   -2.15045160317654      1.10432403174710     -1.26357347979587
  C   -6.19031400992461     -1.09623002626553      3.60275301802901
  C   -6.93723625293662     -0.39108840178922      2.47740691811510
  O   -8.15453947939178     -0.31673701147041      2.49880597898704
  C   -4.83478996731360     -1.70287636339062      3.28918164687003
  O   -4.99052233585599     -2.75113226064580      2.38191058011992
  N   -6.19652445139200      0.20891038362168      1.52929154637008
  C   -6.80793999997101      0.97813500656583      0.47557699914816
  C   -7.17880200420694     -1.98865100182112     -2.81116000342255
  C   -6.83902691119303     -1.38145976918529     -4.01313063006749
  C   -6.33270808237932     -1.81705140094099     -1.72095725672615
  C   -5.69158488380078     -0.61330888983454     -4.12296769333447
  C   -5.17902773164136     -1.05289011750914     -1.81676865271310
  C   -4.84543914628913     -0.42878503525640     -3.02326906013252
  O   -3.76556156863493      0.33260322368078     -3.19134837565397
  C   -3.59589600404246     -4.83016601268086     -0.29799500005305
  C   -2.69743813252089     -3.65922139279494     -0.13913984277123
  N   -2.47949536472443     -3.08605603826034      1.08525842466497
  C   -2.00160272279986     -2.97438051663144     -1.09106820619634
  C   -1.67122520757032     -2.08016737142578      0.87272266349467
  N   -1.34445641654764     -1.97876913614780     -0.42458900955974
  C   2.90372600174466     -1.54500900114256      4.25061200156573
  C   1.87746074049025     -0.50477328059472      3.84193635666611
  C   2.12692330960352      0.00223807260977      2.44247569260602
  S   2.31668159328228     -1.20294927753289      1.19447578294135
  C   2.20223537339126      1.29970297660552      2.15571149910393
  S   2.51541756814185      1.80004939681960      0.52357452432513
  W   2.57831165563846     -0.13547870033132     -0.91749679051536
  C   2.00496298882016      2.35130294460355      3.20218569491805
  C   1.28846753340337      1.71511262996579      4.38202583653145
  O   1.94267093598891      0.53874293901667      4.78192800069244
  C   6.76268299998599      0.53966599887666      0.80608200261085
  C   6.89143247963981     -0.46385306717988     -0.33529818378796
  C   5.53246660512392     -0.77891971773145     -0.92070878659714
  S   4.72815067001896      0.52113698786328     -1.76068918389453
  C   4.98619125900610     -2.01798928037821     -0.81395299720925
  S   3.37062642093940     -2.32434394553654     -1.34571767044942
  C   5.80135571551652     -3.16141778990099     -0.29514020053950
  C   7.27016858898871     -2.81013511922816     -0.43843365090154
  O   7.53851610989366     -1.59265620403247      0.20111720258247
  O   1.09262318759308     -0.42972542133922     -1.68136589586855
  O   2.22997164320206      1.80723526356311     -2.30457386441003
  C   1.10683859836854      2.22888864230066     -2.49868171850904
  H   -1.78512816253864      6.36531903389507     -2.69531976282589
  H   -2.02104395944067      2.53464633021314      2.51529500154372
  H   -0.54264506364145      3.32833768892186      1.99101737801541
  H   -0.68404423547950      0.85715034689869      1.44364417246039
  H   -0.27610700018651      1.90908680149096      0.11419124168932
  H   -3.32761227149550      3.47949374472641      0.80457564099493
  H   -4.39589353135767     -2.04446790869776      4.24145191886507
  H   -4.14884491691877     -0.92790501542494      2.91499021921072
  H   -4.11008486706104     -2.96112272112397      2.02092243240060
  H   -6.06490097911296     -0.36127041302847      4.40566891636455
  H   -6.01739723333419      1.34651161660080     -0.17211937480607
  H   -7.36801905697137      1.82683969017019      0.87373855943836
  H   -7.47901693776939     -1.49995781178211     -4.87968951977058
  H   -6.56863953194797     -2.27023332001049     -0.76519458300731
  H   -5.43858183951899     -0.13486950678700     -5.06124827617521
  H   -4.54974876960559     -0.91922933725639     -0.94549284119736
  H   -3.25955735846688      0.52321211955256     -2.35411990162162
  H   -3.64378571897195     -5.14833000979639     -1.33854431003740
  H   -4.61190799870051     -4.59017036895093      0.01975431135924
  H   -1.94121513415431     -3.09212848345191     -2.15878310795309
  H   -0.80496795291061     -1.24103819893171     -0.84928540784363
  H   -1.30612801646011     -1.39748563539722      1.62168694465153
  H   2.82404222479990     -2.43589743333264      3.63016485433020
  H   3.91434234358588     -1.14790205537918      4.15384140411122
  H   0.87557515156510     -0.96649397225524      3.86354675163844
  H   1.41460306004025      3.18177959437731      2.80912819523390
  H   0.24148240359652      1.51850882185520      4.11011343961205
  H   6.08886748902860      0.15733151087431      1.57298565215423
  H   6.36162735958906      1.48589894797899      0.44702211306902
  H   7.50435069343172     -0.02123704473917     -1.13821918278932
  H   5.56537469707266     -4.06715850073782     -0.86005618320534
  H   7.54066347022141     -2.77887138981211     -1.50363732140306
  H   1.28540905246333      2.38305688349375      5.24467502608035
  H   2.96897434320429      2.76709505623355      3.51055699756222
  H   2.74412654341905     -1.84287872103968      5.28714082740285
  H   7.73911063318364      0.72406119102630      1.25386585939324
  H   5.55073584007358     -3.36514489617893      0.74974766523224
  H   7.90198209674087     -3.56006854647979      0.03981489334476
  H   -1.30666204331013      4.68138836686450     -2.91011890766515
  H   -2.36992022454474      4.79715177050613      1.46012543597778
  H   -3.25781268689637     -5.67719245160960      0.30114382844937
  H   -6.85631334144309     -1.86621514254127      3.99433295805710
  H   -7.48798403168178      0.37722128275555     -0.12830948650455
  H   -5.19375506119817      0.11099765447138      1.48773446928332
  H   -2.00528438865964      3.48615312815206     -1.14720352047292
  H   -0.10423402872645      5.91533375887415     -2.47473827491901
  H   -8.07983032839021     -2.58089422189856     -2.72280549247051
  H   0.20093173922292      1.75803021745824     -2.09493569963387
  H   0.98121451978871      3.12796242283195     -3.11246131025155
