89
Coordinates from ORCA-job opt
  H   99.29234999792213    151.21306200022428    146.93883900431683
  C   98.20276469526209    151.24003280505138    146.74746635117864
  O   97.63169991914488    152.27671551851029    146.47850051755316
  N   97.63772485170603    150.03120198607647    146.84975264850738
  H   96.64854418583995    149.92267844398262    146.70177960692993
  H   98.13952420757948    149.18498377068786    147.07603144572590
  H   103.15253100905004    141.12085598583297    144.27821400371823
  C   102.66514132485135    142.04890846779455    143.90000614128829
  O   103.21449941977545    143.13358003378778    143.96374589237720
  N   101.45598978683493    141.81266757564006    143.37068483851775
  H   101.02989822104061    140.91283026078784    143.58988604729305
  C   100.55698987133522    142.86917943168035    142.97486617047122
  H   100.36135330784187    143.56531274791314    143.79474992766430
  H   100.98014498150775    143.49463601263835    142.17262200534600
  C   99.25243894018882    142.27934795316727    142.46021664962632
  O   99.14307096530641    141.14079833991784    142.06184687190893
  N   98.21795195928608    143.15937877241504    142.42238256920544
  H   98.34335232107040    144.08187898019557    142.80626900801363
  C   96.97031292387987    142.81559998963007    141.77963907440844
  H   96.45522803696043    143.75386135255272    141.55554752668564
  H   97.17647000225760    142.33103899278592    140.80215797860075
  C   95.98849703278066    141.96893390061959    142.63440959013116
  O   95.30478920380460    141.10647211034902    142.13124412204905
  N   95.90597114465292    142.32461412469814    143.94578855063313
  H   96.42235242797800    143.12977934302469    144.26799270978003
  C   94.99352421257650    141.76104570077277    144.92994213948992
  H   94.99819368724735    142.46531382773409    145.76764925333504
  H   93.93851503101226    141.70369998718286    144.60641999736509
  C   95.41217121053590    140.40586606750446    145.51714877781561
  O   94.60816757109670    139.67090905918508    146.05607256961653
  N   96.74179357577410    140.15167014524826    145.46553840830751
  H   97.27439446989757    140.74844570984752    144.85141374113118
  C   97.33197762098635    138.86262543770130    145.75918520071605
  H   96.62765597790626    138.08637260040479    145.43906430667735
  C   98.61313112990480    138.68416560623339    144.94324073636719
  H   98.38508215236830    138.87886881129987    143.89222256507264
  H   98.90952598356860    137.63923994859670    145.02280386945878
  S   100.04113837770258    139.68225425416770    145.48205260025347
  C   97.61494617522951    138.52807590282745    147.23281334296587
  O   97.94907576176109    137.39153004547563    147.51770811353867
  N   97.43586797430055    139.49428942998384    148.15077807670622
  H   97.13644588274749    140.40725595493237    147.84806573150038
  C   97.52660786227558    139.28190718122664    149.58018858545600
  H   97.34444892326805    140.25279443943435    150.04047802606229
  C   96.50962718398782    138.26383511681362    150.07878888189103
  H   96.78172900693696    137.26273196362166    149.73960932863545
  H   96.51350087603748    138.25899264765192    151.17119566201825
  O   95.18520479097147    138.57215219370858    149.67929284761217
  H   95.17840789470841    138.69744248930263    148.71915096062901
  H   98.51508097571062    138.95989698602568    149.93365495623024
  H   98.01363201668842    146.28820599888834    151.18299199656497
  C   97.75899568733547    145.70095957174456    152.08051494478508
  O   97.57863835655071    146.19653852791242    153.17703362845012
  N   97.70156789127594    144.39618991648339    151.78247298768869
  H   97.83591355930308    144.14657592344511    150.80849019134371
  C   97.32707406488150    143.38875553387899    152.72887375784561
  H   97.88967520448730    142.47385400120456    152.54214082181710
  H   97.54913195854829    143.73904004236968    153.73446508761180
  H   96.26066787116575    143.14674511710362    152.67817394051841
  H   93.22986300483932    143.90170156210303    152.45572626331133
  C   92.99110373316752    143.16949273755199    153.23660882763352
  H   93.92248317155291    142.96608666891967    153.78088942856590
  H   92.30444504404538    143.65411096006625    153.93613594597417
  O   92.36882881811984    142.01292806346737    152.74876047538720
  H   92.94228031182206    141.61262348018019    152.08662667913774
  H   93.26440390738277    143.27732646566022    148.41147566155041
  C   93.26257530974523    142.73750654856613    149.35344791077839
  H   93.40029738280825    143.46835075547148    150.15090478290975
  H   92.31898398439959    142.21620501177395    149.51606006537014
  C   94.35172124242894    141.71577801627012    149.38808877370522
  O   94.19876543984590    140.88641291635506    150.42620057463856
  O   95.23957349380578    141.60909725512559    148.58337198405383
  H   93.21140405228589    146.09094300455868    148.92047596688963
  C   94.06016418012688    145.91289688266616    148.25936662680198
  S   95.53167047421432    145.56316782241294    149.14775171327668
  C   94.02312960947472    145.91401285645941    146.92083334392885
  S   95.46170875282579    145.47939095899019    145.98034132911158
  H   93.14497393857697    146.18763301445694    146.32804198476501
  Cu  99.35518120956117    141.68020362648821    146.04804928229231
  S   98.81436113696813    143.79091266235460    146.53147385859950
  Mo  97.25792848644062    145.48929545219681    147.54086335084315
  O   98.23740123350599    144.27927734084022    148.94683981846563
  O   97.98709988052995    146.97947504888180    147.44361785305983
  C   98.99192990123798    143.44228810562493    148.32421796092703
  O   99.65474846183027    142.54511685211821    148.76828246069735
  H   94.68202188070552    140.03540547088957    150.25378536503422
  O   101.24269054948870    145.63623480303676    144.75451026455073
  H   101.94636049256287    144.98720628701781    144.66159469741629
  H   100.69430331159811    145.30885858346983    145.47547174921866
