59
Coordinates from ORCA-job opt
  N   42.54145993349636     46.21052908330267     84.67583298061251
  C   41.14976360690152     45.95719919010487     85.09075267698184
  C   40.20643589286802     46.32058614099020     83.93395943972725
  O   39.02703449285051     46.00971876399127     84.02664823097297
  C   40.76212301663384     46.78831300515781     86.33056097058402
  C   40.46305817130290     48.22181104026377     86.05067606729295
  N   41.39203883119592     49.23692409246580     86.01257829527313
  C   39.27477810566288     48.78297211269202     85.71111328481558
  C   40.81927643514620     50.34635730295373     85.59382961682904
  N   39.52440448975882     50.10471983891634     85.44202330043589
  N   40.82920862396534     47.03507628095741     82.99531702241741
  C   40.05525108757549     47.63066741861599     81.92608480066897
  C   40.51902136335443     47.26409396278424     80.51797845998493
  O   39.90905136755023     47.66595070716242     79.54993981938894
  C   40.14627993496690     49.14828735010754     82.06866459031549
  S   41.87166982011401     49.63370372068974     82.44017047479521
  N   41.64650201326210     46.52738547284735     80.41810200641579
  C   42.26882759816183     46.28374197744235     79.14648025849468
  C   43.02356776885423     47.46126493285426     78.52743559925899
  O   43.44895414149597     47.37332154053515     77.39697777702469
  N   43.22009061390712     48.54020792077838     79.31460626190329
  C   43.78874039969863     49.74873905867970     78.77244012055446
  C   45.22689670456764     49.66501851592895     78.27841968073592
  O   45.56061767604997     50.24715064033238     77.27413055536061
  N   46.13213219376490     48.92721312358632     78.99476558844775
  C   46.04817081672159     48.56289371836830     80.37337457703396
  C   46.12859087436490     49.74199888350508     81.34306678991717
  O   46.01474572873752     50.89147766457155     80.98375929471943
  N   46.33290742294743     49.36636334931362     82.63055095059170
  C   46.15376730493399     50.27265302960230     83.73483786454493
  C   44.71357860758624     50.32513126324410     84.22995380445352
  S   44.14694444760316     48.66852882558881     84.74692674006148
  Ni  42.41425645126660     47.85696222450904     83.57787328060233
  H   41.00790382546209     44.90551681843807     85.35689900510057
  H   39.85964778270360     46.33748235709285     86.74067486865023
  H   41.52805409661232     46.69969075558777     87.10619260100097
  H   42.43378307999599     49.10742871735973     85.96392805229229
  H   38.30462092868866     48.33253645765828     85.59653631159291
  H   41.32044769004303     51.27570844621474     85.39032137349659
  H   39.00841232562055     47.31881946364220     81.98983771989064
  H   39.80960554367911     49.64876555862656     81.16147193070684
  H   39.48823496050873     49.46797777646957     82.87932451037381
  H   42.09190308358549     46.22801033263750     81.26578506504011
  H   42.97569923661654     45.45920105719979     79.25246223328320
  H   41.52550221221797     45.96799052925719     78.41433164328598
  H   42.75132611272900     48.62379223481750     80.20734563733225
  H   43.20545076454466     50.11101880308665     77.92443415191953
  H   43.74225137977044     50.50960267643543     79.55332445150361
  H   47.06550144980951     49.03167546855259     78.62839541332499
  H   45.11745039221805     48.02862028573305     80.57302717552082
  H   46.85457521838014     47.85722718087957     80.58997313685474
  H   46.23155166435067     48.38918578780997     82.85464774212787
  H   46.81399619324138     49.96363589067990     84.54716756026770
  H   46.46866993379449     51.26645373424795     83.41717216338107
  H   44.66083150018691     50.99944826093819     85.08760909249227
  H   44.06212307010983     50.72456542287551     83.45235797840341
  H   38.84977830733705     50.77614064216095     85.11363940827988
  H   42.85941570281211     45.43156902153468     84.10346988949792
  H   43.17366760770980     46.23146416721497     85.47423970315418
