58
Coordinates from ORCA-job fragopt
  N   -0.76144743405960     -3.88587418185811     -3.39628556452475
  H   -0.52629000965790     -3.96987244711055     -4.37114386423899
  C   -0.06638400962812     -3.16758300899889     -2.46660999108465
  N   -1.83853742666120     -4.13212984559750     -1.51530321511011
  C   -0.74803863525956     -3.32864481916235     -1.30109803250033
  H   -0.51975179740775     -2.90719559290326     -0.33651620525773
  C   -1.81673972791225     -4.44944499616071     -2.78745199562913
  H   -2.53304638208981     -5.07268316016052     -3.29621792707129
  N   -1.39529089470977     -7.35870366236701      2.80572072062665
  H   -1.45180411921671     -7.94634695251122      3.62074303522034
  C   -0.25814001721766     -7.06944301074858      2.10620498074927
  N   -2.00175972591211     -6.01916893182491      1.19253490084932
  C   -0.65247228936576     -6.23651255831321      1.10546083033071
  H   -0.04736954530497     -5.78700504779245      0.33593467275596
  C   -2.41814942182178     -6.71064579567777      2.22608488164696
  H   -3.43517128087659     -6.77378713577376      2.57722628280825
  N   -5.98111486130055     -2.80518894036628      2.18706002772182
  H   -6.33397793609221     -2.43630080888601      3.05485539619497
  C   -6.55193200589007     -2.64818700757797      0.95607399737051
  N   -4.65293480117401     -3.80305778941784      0.77185674224498
  C   -5.71160520413676     -3.27258423429887      0.08595305714703
  H   -5.79451495604595     -3.34654983684596     -0.98511969909218
  C   -4.84342357545680     -3.49981755021016      2.03386577446071
  H   -4.18897888885108     -3.75103711538365      2.85274672390401
  N   -7.81366284136558     -9.89468290803148      0.99261067580283
  H   -7.73884261177536    -10.78355268459547      1.46060456302840
  C   -8.88724097492397     -9.05227698283192      1.04408699194013
  N   -7.30702220486151     -8.19201948426005     -0.25765190840295
  C   -8.55963853738310     -7.99339707857122      0.25716331716164
  H   -9.14697769574468     -7.12012696999077      0.03053953268370
  C   -6.88352977519147     -9.34855418611366      0.20286153413248
  H   -5.93587359075073     -9.81236037364473     -0.01560011116424
  N   -4.78020575206516    -10.24205689633504     -3.97532419607707
  H   -4.02598911590979    -10.76095165731261     -4.39483074349280
  C   -6.08902699271665    -10.63096598656322     -3.92748997775650
  N   -5.84529351252602     -8.64501420999706     -2.93761766202731
  C   -6.73880459848195     -9.62585391515304     -3.27939394328733
  H   -7.78689556450356     -9.55653014039358     -3.03878832869861
  C   -4.67474218923515     -9.04918477113339     -3.37005656323735
  H   -3.74157312398182     -8.52192417403741     -3.25755897746803
  N   -8.58483354627362     -5.00860811955408     -4.08466605173266
  H   -8.94251186027793     -4.87334729070577     -5.01704168042518
  C   -8.91694599902412     -4.26754700417816     -2.98546900197445
  N   -7.45940560120983     -5.85808843398567     -2.43071414980800
  C   -8.20919822567929     -4.80995980680777     -1.95781549623688
  H   -8.18925614284569     -4.50940271971741     -0.92379726262652
  C   -7.71093679454685     -5.95202093145595     -3.71855249291091
  H   -7.28672111996302     -6.67642989083764     -4.39434692225644
  Cu  -6.19685037780827     -7.02614895186472     -1.44767016150561
  Cu  -3.06387576634856     -4.75013866288245     -0.03896709173461
  O   -4.57729332395782     -7.22760408893798     -0.60852331679827
  O   -4.49884435465649     -6.16490847925969     -1.33991791960999
  H   0.82423253285711     -2.61267595846406     -2.70354957733398
  H   0.70637006134002     -7.46476250469507      2.37217078873251
  H   -7.46176869047224     -2.09369149086505      0.80591107372560
  H   -9.77383867556513     -9.27033974508932      1.61304908207493
  H   -6.43851734709091    -11.55600341475011     -4.35162627226395
  H   -9.61158023824130     -3.44692996890664     -3.02157041896444
